* NGSPICE file created from EF_R2RVC02.ext - technology: sky130A

.subckt EF_R2RVC02 VSS A1 A2 SELB VO B2 B1 SELA VDD DVSS DVDD EN
X0 a_4503_4914.t3 EF_AMUX2to1ISO_0.VO a_1297_4914.t1 VDD.t6 sky130_fd_pr__pfet_g5v0d10v5 ad=0.725 pd=5.29 as=0.725 ps=5.29 w=5 l=2
X1 VSS.t8 EF_R2RVCE_0.comparator_0.VBN.t9 a_1297_2982.t0 VSS.t2 sky130_fd_pr__nfet_g5v0d10v5 ad=0.725 pd=5.29 as=0.725 ps=5.29 w=5 l=2
X2 VSS.t18 a_1355_1794.t8 a_1755_1820.t5 VSS.t11 sky130_fd_pr__nfet_g5v0d10v5 ad=0.725 pd=5.29 as=0.725 ps=5.29 w=5 l=2
X3 a_6639_n11591# a_6271_n10609# DVDD.t1 DVDD.t0 sky130_fd_pr__pfet_01v8_hvt ad=0.248 pd=2.27 as=0.118 ps=1.12 w=0.84 l=0.15
X4 DVSS.t6 a_10169_4802# a_10179_5308# DVSS.t5 sky130_fd_pr__nfet_g5v0d10v5 ad=0.199 pd=2.03 as=0.199 ps=2.03 w=0.75 l=0.5
X5 EF_AMUX2to1ISO_1.single_ls_2tgwd_sw_0.single_tg_0.VIN a_10204_n8486.t3 EF_AMUX2to1ISO_1.single_ls_2tgwd_sw_0.single_tg_0.VIN VDD.t173 sky130_fd_pr__pfet_g5v0d10v5 ad=0.29 pd=2.58 as=2.03 ps=18.1 w=1 l=0.5
X6 EF_R2RVCE_0.sky130_fd_sc_hvl__inv_4_0.Y.t7 EF_R2RVCE_0.sky130_fd_sc_hvl__inv_4_0.A DVSS.t266 DVSS.t262 sky130_fd_pr__nfet_g5v0d10v5 ad=0.105 pd=1.03 as=0.214 ps=2.07 w=0.75 l=0.5
X7 VDD.t123 EF_AMUX2to1ISO_1.single_ls_2tgwd_sw_1.single_ls_0.DOHB a_6804_n8486.t1 VDD.t122 sky130_fd_pr__pfet_g5v0d10v5 ad=0.145 pd=1.29 as=0.29 ps=2.58 w=1 l=0.5
X8 EF_AMUX2to1ISO_1.single_ls_2tgwd_sw_0.DINL SELB.t0 DVSS.t60 DVSS.t59 sky130_fd_pr__nfet_g5v0d10v5 ad=0.105 pd=1.03 as=0.105 ps=1.03 w=0.75 l=0.5
X9 DVSS.t173 a_10179_5308# VO.t1 DVSS.t172 sky130_fd_pr__nfet_01v8 ad=0.196 pd=2.01 as=0.196 ps=2.01 w=0.74 l=0.15
X10 VDD.t99 EF_AMUX2to1ISO_0.single_ls_2tgwd_sw_0.single_ls_0.DOHB a_3606_n8490.t1 VDD.t98 sky130_fd_pr__pfet_g5v0d10v5 ad=0.145 pd=1.29 as=0.29 ps=2.58 w=1 l=0.5
X11 DVSS.t94 EF_AMUX2to1ISO_1.single_ls_2tgwd_sw_1.single_ls_0.DOH.t2 EF_AMUX2to1ISO_1.single_ls_2tgwd_sw_1.single_ls_0.DOHB DVSS.t93 sky130_fd_pr__nfet_g5v0d10v5 ad=0.214 pd=2.07 as=0.105 ps=1.03 w=0.75 l=0.5
X12 a_10235_4600# EF_R2RVCE_0.sky130_fd_sc_hvl__lsbufhv2lv_1_0.A VDD.t207 VDD.t206 sky130_fd_pr__pfet_g5v0d10v5 ad=0.111 pd=1.37 as=0.12 ps=1.41 w=0.42 l=0.5
X13 VSS.t55 VSS.t54 VSS.t55 VSS.t11 sky130_fd_pr__nfet_g5v0d10v5 ad=0.725 pd=5.29 as=0 ps=0 w=5 l=2
X14 a_4503_4914.t7 a_4503_4914.t6 VSS.t22 VSS.t11 sky130_fd_pr__nfet_g5v0d10v5 ad=0.725 pd=5.29 as=0.725 ps=5.29 w=5 l=2
X15 a_10914_2086# a_10618_2709# DVSS.t253 DVSS.t145 sky130_fd_pr__nfet_g5v0d10v5 ad=0.199 pd=2.03 as=0.122 ps=1.08 w=0.75 l=0.5
X16 EF_AMUX2to1ISO_1.single_ls_2tgwd_sw_1.single_tg_0.VIN.t3 a_6804_n3484.t3 EF_AMUX2to1ISO_1.VO DVSS.t21 sky130_fd_pr__nfet_g5v0d10v5 ad=0.29 pd=2.29 as=0.58 ps=4.58 w=2 l=0.5
X17 EF_AMUX2to1ISO_1.single_ls_2tgwd_sw_0.single_tg_0.VIN EF_AMUX2to1ISO_1.single_ls_2tgwd_sw_0.single_ls_0.DOH.t2 DVSS.t197 DVSS.t196 sky130_fd_pr__nfet_g5v0d10v5 ad=0.145 pd=1.58 as=0.145 ps=1.58 w=0.5 l=8
X18 VDD.t175 a_10204_n8486.t4 a_10209_n9511.t1 VDD.t174 sky130_fd_pr__pfet_g5v0d10v5 ad=0.145 pd=1.29 as=0.29 ps=2.58 w=1 l=0.5
X19 VDD.t205 a_n227_n10525# a_466_n11639# VDD.t204 sky130_fd_pr__pfet_g5v0d10v5 ad=0.111 pd=1.37 as=0.137 ps=1.49 w=0.42 l=1
X20 a_10464_n11635# a_10039_n11591# DVSS.t36 DVSS.t35 sky130_fd_pr__nfet_g5v0d10v5 ad=0.398 pd=3.53 as=0.21 ps=1.78 w=1.5 l=0.5
X21 EF_AMUX2to1ISO_0.single_ls_2tgwd_sw_0.single_tg_0.VIN a_3606_n3488.t3 EF_AMUX2to1ISO_0.VO DVSS.t38 sky130_fd_pr__nfet_g5v0d10v5 ad=0.29 pd=2.29 as=0.58 ps=4.58 w=2 l=0.5
X22 EF_AMUX2to1ISO_0.single_ls_2tgwd_sw_0.single_tg_0.VIN a_3611_n4513# EF_AMUX2to1ISO_0.single_ls_2tgwd_sw_0.single_tg_0.VIN DVSS.t52 sky130_fd_pr__nfet_g5v0d10v5 ad=0.58 pd=4.58 as=4.2 ps=33.6 w=2 l=0.5
X23 DVDD.t11 SELA.t0 EF_AMUX2to1ISO_0.single_ls_2tgwd_sw_0.DINL DVDD.t10 sky130_fd_pr__pfet_g5v0d10v5 ad=0.428 pd=3.57 as=0.21 ps=1.78 w=1.5 l=0.5
X24 VSS.t53 VSS.t51 EF_R2RVCE_0.comparator_0.VBN.t4 VSS.t52 sky130_fd_pr__nfet_g5v0d10v5 ad=1.45 pd=10.6 as=0.725 ps=5.29 w=5 l=2
X25 EF_AMUX2to1ISO_0.VO a_206_n3488.t3 EF_AMUX2to1ISO_0.single_ls_2tgwd_sw_1.single_tg_0.VIN DVSS.t107 sky130_fd_pr__nfet_g5v0d10v5 ad=0.58 pd=4.58 as=0.29 ps=2.29 w=2 l=0.5
X26 EF_AMUX2to1ISO_0.single_ls_2tgwd_sw_0.single_tg_0.VIN a_3611_n9515.t3 EF_AMUX2to1ISO_0.single_ls_2tgwd_sw_0.single_tg_0.VIN DVSS.t19 sky130_fd_pr__nfet_g5v0d10v5 ad=0.58 pd=4.58 as=0 ps=0 w=2 l=0.5
X27 a_10204_n8486.t1 EF_AMUX2to1ISO_1.single_ls_2tgwd_sw_0.single_ls_0.DOHB VDD.t108 VDD.t0 sky130_fd_pr__pfet_g5v0d10v5 ad=0.29 pd=2.58 as=0.145 ps=1.29 w=1 l=0.5
X28 a_1297_4914.t0 EF_AMUX2to1ISO_0.VO a_4503_4914.t2 VDD.t5 sky130_fd_pr__pfet_g5v0d10v5 ad=0.725 pd=5.29 as=0.725 ps=5.29 w=5 l=2
X29 EF_AMUX2to1ISO_0.VO a_211_n4513# EF_AMUX2to1ISO_0.VO DVSS.t148 sky130_fd_pr__nfet_g5v0d10v5 ad=0.58 pd=4.58 as=4.64 ps=36.6 w=2 l=0.5
X30 DVSS.t188 a_10204_n8486.t5 a_10209_n9511.t2 DVSS.t187 sky130_fd_pr__nfet_g5v0d10v5 ad=0.58 pd=4.58 as=0.58 ps=4.58 w=2 l=0.5
X31 a_1355_1794.t7 a_1355_1794.t6 VSS.t14 VSS.t11 sky130_fd_pr__nfet_g5v0d10v5 ad=0.725 pd=5.29 as=0.725 ps=5.29 w=5 l=2
X32 EF_AMUX2to1ISO_1.single_ls_2tgwd_sw_1.single_ls_0.DOHB EF_AMUX2to1ISO_1.single_ls_2tgwd_sw_1.single_ls_0.DOH.t3 DVSS.t115 DVSS.t114 sky130_fd_pr__nfet_g5v0d10v5 ad=0.105 pd=1.03 as=0.214 ps=2.07 w=0.75 l=0.5
X33 DVSS.t144 a_9671_n10609# a_9771_n10521# DVSS.t143 sky130_fd_pr__nfet_g5v0d10v5 ad=0.21 pd=1.78 as=0.21 ps=1.78 w=1.5 l=0.5
X34 DVSS.t80 EF_AMUX2to1ISO_0.single_ls_2tgwd_sw_1.single_ls_0.DOHB a_206_n8490.t2 DVSS.t79 sky130_fd_pr__nfet_g5v0d10v5 ad=0.58 pd=4.58 as=0.58 ps=4.58 w=2 l=0.5
X35 a_6639_n11591# a_6271_n10609# DVSS.t18 DVSS.t17 sky130_fd_pr__nfet_01v8 ad=0.248 pd=2.27 as=0.118 ps=1.12 w=0.84 l=0.15
X36 B1.t7 a_6804_n8486.t3 B1.t6 VDD.t118 sky130_fd_pr__pfet_g5v0d10v5 ad=0.29 pd=2.58 as=0 ps=0 w=1 l=0.5
X37 DVDD.t38 a_10180_3343# a_10136_2294# DVDD.t37 sky130_fd_pr__pfet_01v8_hvt ad=0.118 pd=1.12 as=0.248 ps=2.27 w=0.84 l=0.15
X38 EF_AMUX2to1ISO_1.VO a_10204_n3484.t3 EF_AMUX2to1ISO_1.single_ls_2tgwd_sw_0.single_tg_0.VIN DVSS.t174 sky130_fd_pr__nfet_g5v0d10v5 ad=0.58 pd=4.58 as=0.29 ps=2.29 w=2 l=0.5
X39 EF_AMUX2to1ISO_0.single_ls_2tgwd_sw_0.DINL SELA.t1 DVSS.t255 DVSS.t254 sky130_fd_pr__nfet_g5v0d10v5 ad=0.105 pd=1.03 as=0.105 ps=1.03 w=0.75 l=0.5
X40 VDD.t22 a_10464_n11635# a_9771_n10521# VDD.t21 sky130_fd_pr__pfet_g5v0d10v5 ad=0.214 pd=1.99 as=0.214 ps=1.99 w=0.42 l=1
X41 VDD.t189 a_9771_n10521# a_10978_n10857# VDD.t14 sky130_fd_pr__pfet_g5v0d10v5 ad=0.244 pd=1.83 as=0.398 ps=3.53 w=1.5 l=0.5
X42 EF_R2RVCE_0.comparator_0.VBN.t5 a_1425_9823.t6 EF_R2RVCE_0.comparator_bias_0.down VDD.t182 sky130_fd_pr__pfet_g5v0d10v5 ad=0.725 pd=5.29 as=1.45 ps=10.6 w=5 l=2
D0 DVSS.t86 EF_AMUX2to1ISO_0.single_ls_2tgwd_sw_0.single_ls_0.DOHB sky130_fd_pr__diode_pw2nd_05v5 pj=1.8e+06 area=2.025e+11
X43 B2.t7 a_10209_n9511.t3 EF_AMUX2to1ISO_1.single_ls_2tgwd_sw_0.single_tg_0.VIN VDD.t69 sky130_fd_pr__pfet_g5v0d10v5 ad=0.145 pd=1.29 as=0.29 ps=2.58 w=1 l=0.5
X44 DVSS.t50 a_3441_n11595# a_3866_n11639# DVSS.t49 sky130_fd_pr__nfet_g5v0d10v5 ad=0.21 pd=1.78 as=0.21 ps=1.78 w=1.5 l=0.5
X45 a_9771_n10521# a_9671_n10609# DVSS.t142 DVSS.t141 sky130_fd_pr__nfet_g5v0d10v5 ad=0.398 pd=3.53 as=0.21 ps=1.78 w=1.5 l=0.5
X46 a_9771_n10521# a_9671_n10609# DVSS.t140 DVSS.t139 sky130_fd_pr__nfet_g5v0d10v5 ad=0.21 pd=1.78 as=0.398 ps=3.53 w=1.5 l=0.5
X47 EF_AMUX2to1ISO_0.single_ls_2tgwd_sw_0.single_ls_0.DOH.t0 a_4380_n10861# VDD.t200 VDD.t162 sky130_fd_pr__pfet_g5v0d10v5 ad=0.398 pd=3.53 as=0.244 ps=1.83 w=1.5 l=0.5
X48 a_1425_9823.t4 EF_R2RVCE_0.comparator_bias_0.down VDD.t155 VDD.t154 sky130_fd_pr__pfet_g5v0d10v5 ad=0.725 pd=5.29 as=0.725 ps=5.29 w=5 l=2
X49 VDD.t60 VDD.t59 VDD.t60 VDD.t55 sky130_fd_pr__pfet_g5v0d10v5 ad=0.725 pd=5.29 as=0 ps=0 w=5 l=2
X50 DVSS.t252 a_10136_2294# a_10162_2241# DVSS.t247 sky130_fd_pr__nfet_g5v0d10v5 ad=0.398 pd=3.53 as=0.21 ps=1.78 w=1.5 l=0.5
X51 EF_R2RVCE_0.sky130_fd_sc_hvl__lsbufhv2lv_1_0.A a_8085_2982.t2 VSS.t13 VSS.t2 sky130_fd_pr__nfet_g5v0d10v5 ad=1.45 pd=10.6 as=0.725 ps=5.29 w=5 l=2
X52 DVSS.t85 EF_AMUX2to1ISO_0.single_ls_2tgwd_sw_0.single_ls_0.DOHB a_3606_n3488.t2 DVSS.t84 sky130_fd_pr__nfet_g5v0d10v5 ad=0.58 pd=4.58 as=0.58 ps=4.58 w=2 l=0.5
X53 EF_AMUX2to1ISO_1.VO a_6809_n4509# EF_AMUX2to1ISO_1.single_ls_2tgwd_sw_1.single_tg_0.VIN.t7 VDD.t125 sky130_fd_pr__pfet_g5v0d10v5 ad=0.29 pd=2.58 as=0.145 ps=1.29 w=1 l=0.5
X54 DVSS.t195 SELA.t2 EF_AMUX2to1ISO_0.single_ls_2tgwd_sw_0.DINL DVSS.t194 sky130_fd_pr__nfet_g5v0d10v5 ad=0.105 pd=1.03 as=0.105 ps=1.03 w=0.75 l=0.5
X55 VDD.t74 a_6371_n10521# a_7064_n11635# VDD.t73 sky130_fd_pr__pfet_g5v0d10v5 ad=0.111 pd=1.37 as=0.137 ps=1.49 w=0.42 l=1
X56 DVDD.t30 SELA.t3 a_n327_n10613# DVDD.t29 sky130_fd_pr__pfet_01v8_hvt ad=0.118 pd=1.12 as=0.248 ps=2.27 w=0.84 l=0.15
X57 VSS.t7 EF_R2RVCE_0.comparator_0.VBN.t10 EF_R2RVCE_0.comparator_0.VBP.t0 VSS.t6 sky130_fd_pr__nfet_g5v0d10v5 ad=0.725 pd=5.29 as=0.725 ps=5.29 w=5 l=2
X58 DVDD.t40 a_10475_5424# a_10179_5308# DVDD.t39 sky130_fd_pr__pfet_01v8_hvt ad=0.297 pd=2.77 as=0.297 ps=2.77 w=1.12 l=0.15
X59 EF_AMUX2to1ISO_0.single_ls_2tgwd_sw_0.single_tg_0.VIN a_3611_n4513# EF_AMUX2to1ISO_0.VO VDD.t18 sky130_fd_pr__pfet_g5v0d10v5 ad=0.145 pd=1.29 as=0.29 ps=2.58 w=1 l=0.5
X60 DVSS.t4 a_10169_4802# a_10179_5308# DVSS.t0 sky130_fd_pr__nfet_g5v0d10v5 ad=0.199 pd=2.03 as=0.105 ps=1.03 w=0.75 l=0.5
X61 EF_AMUX2to1ISO_0.VO a_3606_n3488.t4 EF_AMUX2to1ISO_0.VO VDD.t17 sky130_fd_pr__pfet_g5v0d10v5 ad=0.29 pd=2.58 as=2.32 ps=20.6 w=1 l=0.5
X62 DVSS.t70 a_6371_n10521# a_7578_n10857# DVSS.t69 sky130_fd_pr__nfet_g5v0d10v5 ad=0.122 pd=1.08 as=0.199 ps=2.03 w=0.75 l=0.5
X63 a_1297_4914.t7 EF_AMUX2to1ISO_1.VO a_1355_1794.t3 VDD.t160 sky130_fd_pr__pfet_g5v0d10v5 ad=0.725 pd=5.29 as=0.725 ps=5.29 w=5 l=2
X64 a_10162_2241# a_10136_2294# DVSS.t251 DVSS.t247 sky130_fd_pr__nfet_g5v0d10v5 ad=0.21 pd=1.78 as=0.21 ps=1.78 w=1.5 l=0.5
X65 a_3611_n4513# a_3606_n3488.t5 VDD.t19 VDD.t18 sky130_fd_pr__pfet_g5v0d10v5 ad=0.29 pd=2.58 as=0.145 ps=1.29 w=1 l=0.5
X66 EF_AMUX2to1ISO_0.single_ls_2tgwd_sw_1.single_tg_0.VIN a_206_n8490.t3 EF_AMUX2to1ISO_0.single_ls_2tgwd_sw_1.single_tg_0.VIN VDD.t71 sky130_fd_pr__pfet_g5v0d10v5 ad=0.29 pd=2.58 as=2.03 ps=18.1 w=1 l=0.5
X67 A1.t3 a_206_n8490.t4 EF_AMUX2to1ISO_0.single_ls_2tgwd_sw_1.single_tg_0.VIN DVSS.t162 sky130_fd_pr__nfet_g5v0d10v5 ad=0.29 pd=2.29 as=0.58 ps=4.58 w=2 l=0.5
X68 EF_AMUX2to1ISO_0.single_ls_2tgwd_sw_1.single_ls_0.DOH.t1 a_980_n10861# DVSS.t64 DVSS.t63 sky130_fd_pr__nfet_g5v0d10v5 ad=0.199 pd=2.03 as=0.122 ps=1.08 w=0.75 l=0.5
X69 a_10475_5424# a_10179_5308# DVDD.t24 DVDD.t22 sky130_fd_pr__pfet_01v8_hvt ad=0.297 pd=2.77 as=0.157 ps=1.4 w=1.12 l=0.15
X70 DVSS.t106 a_41_n11595# a_466_n11639# DVSS.t105 sky130_fd_pr__nfet_g5v0d10v5 ad=0.21 pd=1.78 as=0.21 ps=1.78 w=1.5 l=0.5
X71 EF_AMUX2to1ISO_1.single_ls_2tgwd_sw_0.single_ls_0.DOH.t1 a_10978_n10857# DVSS.t26 DVSS.t25 sky130_fd_pr__nfet_g5v0d10v5 ad=0.199 pd=2.03 as=0.122 ps=1.08 w=0.75 l=0.5
X72 EF_R2RVCE_0.comparator_0.VOUTANALOG.t2 a_1755_1820.t6 VDD.t124 VDD.t6 sky130_fd_pr__pfet_g5v0d10v5 ad=0.725 pd=5.29 as=0.725 ps=5.29 w=5 l=2
X73 EF_AMUX2to1ISO_0.VO a_3611_n4513# EF_AMUX2to1ISO_0.single_ls_2tgwd_sw_0.single_tg_0.VIN VDD.t20 sky130_fd_pr__pfet_g5v0d10v5 ad=0.29 pd=2.58 as=0.145 ps=1.29 w=1 l=0.5
X74 a_4503_2982.t3 EF_AMUX2to1ISO_0.VO a_1297_2982.t3 VSS.t2 sky130_fd_pr__nfet_g5v0d10v5 ad=0.725 pd=5.29 as=0.725 ps=5.29 w=5 l=2
X75 a_10162_2241# a_10618_2709# VDD.t196 VDD.t195 sky130_fd_pr__pfet_g5v0d10v5 ad=0.137 pd=1.49 as=0.111 ps=1.37 w=0.42 l=1
X76 VDD.t121 EF_AMUX2to1ISO_1.single_ls_2tgwd_sw_1.single_ls_0.DOHB a_6804_n3484.t1 VDD.t120 sky130_fd_pr__pfet_g5v0d10v5 ad=0.145 pd=1.29 as=0.29 ps=2.58 w=1 l=0.5
X77 DVSS.t3 a_10169_4802# a_10179_5308# DVSS.t2 sky130_fd_pr__nfet_g5v0d10v5 ad=0.199 pd=2.03 as=0.199 ps=2.03 w=0.75 l=0.5
X78 DVSS.t184 a_6639_n11591# a_7064_n11635# DVSS.t183 sky130_fd_pr__nfet_g5v0d10v5 ad=0.21 pd=1.78 as=0.21 ps=1.78 w=1.5 l=0.5
X79 DVSS.t229 SELA.t4 a_n327_n10613# DVSS.t228 sky130_fd_pr__nfet_01v8 ad=0.118 pd=1.12 as=0.248 ps=2.27 w=0.84 l=0.15
X80 a_1425_9823.t5 VSS.t48 VSS.t50 VSS.t49 sky130_fd_pr__nfet_g5v0d10v5 ad=0.725 pd=5.29 as=0.725 ps=5.29 w=5 l=2
X81 VDD.t159 a_10204_n3484.t4 a_10209_n4509# VDD.t158 sky130_fd_pr__pfet_g5v0d10v5 ad=0.145 pd=1.29 as=0.29 ps=2.58 w=1 l=0.5
X82 EF_AMUX2to1ISO_1.single_ls_2tgwd_sw_0.single_tg_0.VIN a_10204_n3484.t5 EF_AMUX2to1ISO_1.single_ls_2tgwd_sw_0.single_tg_0.VIN VDD.t61 sky130_fd_pr__pfet_g5v0d10v5 ad=0.29 pd=2.58 as=0 ps=0 w=1 l=0.5
X83 a_10180_3343# EN.t0 DVSS.t150 DVSS.t149 sky130_fd_pr__nfet_01v8 ad=0.248 pd=2.27 as=0.118 ps=1.12 w=0.84 l=0.15
X84 a_5555_8917# a_10015_8387# DVSS sky130_fd_pr__res_high_po w=1.41 l=20.1
X85 a_10204_n3484.t1 EF_AMUX2to1ISO_1.single_ls_2tgwd_sw_0.single_ls_0.DOHB VDD.t107 VDD.t61 sky130_fd_pr__pfet_g5v0d10v5 ad=0.29 pd=2.58 as=0.145 ps=1.29 w=1 l=0.5
X86 EF_R2RVCE_0.comparator_bias_0.down a_1425_9823.t7 EF_R2RVCE_0.comparator_0.VBN.t6 VDD.t183 sky130_fd_pr__pfet_g5v0d10v5 ad=1.45 pd=10.6 as=0.725 ps=5.29 w=5 l=2
X87 VDD.t192 a_4503_2982.t6 a_4503_2982.t7 VDD.t5 sky130_fd_pr__pfet_g5v0d10v5 ad=0.725 pd=5.29 as=0.725 ps=5.29 w=5 l=2
X88 DVSS.t231 a_10204_n3484.t6 a_10209_n4509# DVSS.t230 sky130_fd_pr__nfet_g5v0d10v5 ad=0.58 pd=4.58 as=0.58 ps=4.58 w=2 l=0.5
X89 a_1297_4914.t9 VDD.t57 VDD.t58 VDD.t1 sky130_fd_pr__pfet_g5v0d10v5 ad=0.725 pd=5.29 as=0.725 ps=5.29 w=5 l=2
X90 VDD.t133 a_10914_2086# EF_R2RVCE_0.sky130_fd_sc_hvl__inv_4_0.A VDD.t132 sky130_fd_pr__pfet_g5v0d10v5 ad=0.244 pd=1.83 as=0.398 ps=3.53 w=1.5 l=0.5
X91 VDD.t181 a_6804_n8486.t4 a_6809_n9511.t1 VDD.t180 sky130_fd_pr__pfet_g5v0d10v5 ad=0.145 pd=1.29 as=0.29 ps=2.58 w=1 l=0.5
X92 DVSS.t221 a_n327_n10613# a_n227_n10525# DVSS.t220 sky130_fd_pr__nfet_g5v0d10v5 ad=0.21 pd=1.78 as=0.21 ps=1.78 w=1.5 l=0.5
X93 a_3173_n10525# a_3073_n10613# DVSS.t209 DVSS.t208 sky130_fd_pr__nfet_g5v0d10v5 ad=0.21 pd=1.78 as=0.21 ps=1.78 w=1.5 l=0.5
X94 a_1297_2982.t2 EF_AMUX2to1ISO_0.VO a_4503_2982.t2 VSS.t2 sky130_fd_pr__nfet_g5v0d10v5 ad=0.725 pd=5.29 as=0.725 ps=5.29 w=5 l=2
X95 EF_R2RVCE_0.comparator_0.VOUTANALOG.t5 a_4503_4914.t8 VSS.t21 VSS.t11 sky130_fd_pr__nfet_g5v0d10v5 ad=0.725 pd=5.29 as=0.725 ps=5.29 w=5 l=2
X96 A1.t4 a_211_n9515.t3 EF_AMUX2to1ISO_0.single_ls_2tgwd_sw_1.single_tg_0.VIN VDD.t63 sky130_fd_pr__pfet_g5v0d10v5 ad=0.145 pd=1.29 as=0.29 ps=2.58 w=1 l=0.5
X97 VSS.t47 VSS.t45 VSS.t46 VSS.t11 sky130_fd_pr__nfet_g5v0d10v5 ad=1.45 pd=10.6 as=0 ps=0 w=5 l=2
X98 a_10618_2709# a_10180_3343# DVSS.t242 DVSS.t235 sky130_fd_pr__nfet_g5v0d10v5 ad=0.21 pd=1.78 as=0.21 ps=1.78 w=1.5 l=0.5
X99 EF_AMUX2to1ISO_1.single_ls_2tgwd_sw_1.single_tg_0.VIN.t5 a_6809_n4509# EF_AMUX2to1ISO_1.single_ls_2tgwd_sw_1.single_tg_0.VIN.t4 DVSS.t130 sky130_fd_pr__nfet_g5v0d10v5 ad=0.58 pd=4.58 as=0 ps=0 w=2 l=0.5
X100 a_211_n9515.t1 a_206_n8490.t5 VDD.t64 VDD.t63 sky130_fd_pr__pfet_g5v0d10v5 ad=0.29 pd=2.58 as=0.145 ps=1.29 w=1 l=0.5
X101 EF_AMUX2to1ISO_0.single_ls_2tgwd_sw_0.DINL SELA.t5 DVDD.t21 DVDD.t20 sky130_fd_pr__pfet_g5v0d10v5 ad=0.21 pd=1.78 as=0.428 ps=3.57 w=1.5 l=0.5
X102 DVSS.t224 a_6804_n8486.t5 a_6809_n9511.t2 DVSS.t223 sky130_fd_pr__nfet_g5v0d10v5 ad=0.58 pd=4.58 as=0.58 ps=4.58 w=2 l=0.5
X103 EF_AMUX2to1ISO_1.single_ls_2tgwd_sw_1.single_tg_0.VIN.t10 a_6809_n9511.t3 EF_AMUX2to1ISO_1.single_ls_2tgwd_sw_1.single_tg_0.VIN.t9 DVSS.t193 sky130_fd_pr__nfet_g5v0d10v5 ad=0.58 pd=4.58 as=0 ps=0 w=2 l=0.5
X104 DVSS.t113 EF_AMUX2to1ISO_1.single_ls_2tgwd_sw_0.single_ls_0.DOHB a_10204_n8486.t2 DVSS.t112 sky130_fd_pr__nfet_g5v0d10v5 ad=0.58 pd=4.58 as=0.58 ps=4.58 w=2 l=0.5
X105 DVDD.t9 SELB.t1 a_6271_n10609# DVDD.t8 sky130_fd_pr__pfet_01v8_hvt ad=0.118 pd=1.12 as=0.248 ps=2.27 w=0.84 l=0.15
X106 DVDD.t23 a_10179_5308# VO.t0 DVDD.t22 sky130_fd_pr__pfet_01v8_hvt ad=0.157 pd=1.4 as=0.297 ps=2.77 w=1.12 l=0.15
X107 B2.t3 a_10204_n8486.t6 EF_AMUX2to1ISO_1.single_ls_2tgwd_sw_0.single_tg_0.VIN DVSS.t67 sky130_fd_pr__nfet_g5v0d10v5 ad=0.29 pd=2.29 as=0.58 ps=4.58 w=2 l=0.5
X108 a_7064_n11635# a_6639_n11591# DVSS.t182 DVSS.t181 sky130_fd_pr__nfet_g5v0d10v5 ad=0.21 pd=1.78 as=0.21 ps=1.78 w=1.5 l=0.5
X109 a_3866_n11639# a_3441_n11595# DVSS.t48 DVSS.t47 sky130_fd_pr__nfet_g5v0d10v5 ad=0.398 pd=3.53 as=0.21 ps=1.78 w=1.5 l=0.5
X110 VDD.t72 a_6371_n10521# a_7578_n10857# VDD.t12 sky130_fd_pr__pfet_g5v0d10v5 ad=0.244 pd=1.83 as=0.398 ps=3.53 w=1.5 l=0.5
X111 a_1297_4914.t10 EF_R2RVCE_0.comparator_0.VBP.t4 VDD.t190 VDD.t52 sky130_fd_pr__pfet_g5v0d10v5 ad=0.725 pd=5.29 as=0.725 ps=5.29 w=5 l=2
X112 VSS.t16 a_1355_1794.t4 a_1355_1794.t5 VSS.t11 sky130_fd_pr__nfet_g5v0d10v5 ad=0.725 pd=5.29 as=0.725 ps=5.29 w=5 l=2
D1 DVSS.t123 EF_AMUX2to1ISO_1.single_ls_2tgwd_sw_1.single_ls_0.DOHB sky130_fd_pr__diode_pw2nd_05v5 pj=1.8e+06 area=2.025e+11
X113 a_4503_4914.t1 EF_AMUX2to1ISO_0.VO a_1297_4914.t3 VDD.t4 sky130_fd_pr__pfet_g5v0d10v5 ad=0.725 pd=5.29 as=0.725 ps=5.29 w=5 l=2
X114 a_6371_n10521# a_6271_n10609# DVSS.t16 DVSS.t15 sky130_fd_pr__nfet_g5v0d10v5 ad=0.398 pd=3.53 as=0.21 ps=1.78 w=1.5 l=0.5
X115 EF_AMUX2to1ISO_0.single_ls_2tgwd_sw_1.single_tg_0.VIN a_206_n3488.t4 EF_AMUX2to1ISO_0.single_ls_2tgwd_sw_1.single_tg_0.VIN VDD.t90 sky130_fd_pr__pfet_g5v0d10v5 ad=0.29 pd=2.58 as=0 ps=0 w=1 l=0.5
X116 EF_AMUX2to1ISO_0.single_ls_2tgwd_sw_1.single_tg_0.VIN a_211_n9515.t4 A1.t7 VDD.t172 sky130_fd_pr__pfet_g5v0d10v5 ad=0.29 pd=2.58 as=0.145 ps=1.29 w=1 l=0.5
X117 a_10464_n11635# a_10039_n11591# DVSS.t34 DVSS.t33 sky130_fd_pr__nfet_g5v0d10v5 ad=0.21 pd=1.78 as=0.398 ps=3.53 w=1.5 l=0.5
X118 EF_AMUX2to1ISO_1.single_ls_2tgwd_sw_0.single_ls_0.DOH.t0 a_10978_n10857# VDD.t15 VDD.t14 sky130_fd_pr__pfet_g5v0d10v5 ad=0.398 pd=3.53 as=0.244 ps=1.83 w=1.5 l=0.5
X119 VDD.t56 VDD.t54 VDD.t56 VDD.t55 sky130_fd_pr__pfet_g5v0d10v5 ad=0.725 pd=5.29 as=0 ps=0 w=5 l=2
X120 EF_R2RVCE_0.sky130_fd_sc_hvl__inv_4_0.Y.t6 EF_R2RVCE_0.sky130_fd_sc_hvl__inv_4_0.A DVSS.t265 DVSS.t262 sky130_fd_pr__nfet_g5v0d10v5 ad=0.105 pd=1.03 as=0.105 ps=1.03 w=0.75 l=0.5
X121 EF_AMUX2to1ISO_1.VO a_6804_n3484.t4 EF_AMUX2to1ISO_1.single_ls_2tgwd_sw_1.single_tg_0.VIN.t2 DVSS.t22 sky130_fd_pr__nfet_g5v0d10v5 ad=0.58 pd=4.58 as=0.29 ps=2.29 w=2 l=0.5
X122 a_n227_n10525# a_n327_n10613# DVSS.t219 DVSS.t218 sky130_fd_pr__nfet_g5v0d10v5 ad=0.398 pd=3.53 as=0.21 ps=1.78 w=1.5 l=0.5
X123 VDD.t168 a_3866_n11639# a_3173_n10525# VDD.t167 sky130_fd_pr__pfet_g5v0d10v5 ad=0.214 pd=1.99 as=0.214 ps=1.99 w=0.42 l=1
X124 a_206_n3488.t1 EF_AMUX2to1ISO_0.single_ls_2tgwd_sw_1.single_ls_0.DOHB VDD.t91 VDD.t90 sky130_fd_pr__pfet_g5v0d10v5 ad=0.29 pd=2.58 as=0.145 ps=1.29 w=1 l=0.5
X125 VSS.t44 VSS.t43 VSS.t44 VSS.t2 sky130_fd_pr__nfet_g5v0d10v5 ad=0.725 pd=5.29 as=0 ps=0 w=5 l=2
X126 B1.t0 a_6809_n9511.t4 EF_AMUX2to1ISO_1.single_ls_2tgwd_sw_1.single_tg_0.VIN.t11 VDD.t80 sky130_fd_pr__pfet_g5v0d10v5 ad=0.145 pd=1.29 as=0.29 ps=2.58 w=1 l=0.5
X127 a_n227_n10525# a_n327_n10613# DVSS.t217 DVSS.t216 sky130_fd_pr__nfet_g5v0d10v5 ad=0.21 pd=1.78 as=0.398 ps=3.53 w=1.5 l=0.5
X128 a_1355_1794.t2 EF_AMUX2to1ISO_1.VO a_1297_4914.t5 VDD.t134 sky130_fd_pr__pfet_g5v0d10v5 ad=0.725 pd=5.29 as=0.725 ps=5.29 w=5 l=2
X129 DVSS.t261 EF_R2RVCE_0.sky130_fd_sc_hvl__lsbufhv2lv_1_0.A a_10235_4600# DVSS.t260 sky130_fd_pr__nfet_g5v0d10v5 ad=0.179 pd=1.26 as=0.12 ps=1.41 w=0.42 l=0.5
X130 EF_AMUX2to1ISO_1.single_ls_2tgwd_sw_1.single_tg_0.VIN.t14 a_6804_n8486.t6 EF_AMUX2to1ISO_1.single_ls_2tgwd_sw_1.single_tg_0.VIN.t13 VDD.t79 sky130_fd_pr__pfet_g5v0d10v5 ad=0.29 pd=2.58 as=0 ps=0 w=1 l=0.5
X131 VDD.t161 a_1755_1820.t2 a_1755_1820.t3 VDD.t160 sky130_fd_pr__pfet_g5v0d10v5 ad=0.725 pd=5.29 as=0.725 ps=5.29 w=5 l=2
X132 VSS.t20 a_4503_4914.t9 EF_R2RVCE_0.comparator_0.VOUTANALOG.t4 VSS.t11 sky130_fd_pr__nfet_g5v0d10v5 ad=0.725 pd=5.29 as=0.725 ps=5.29 w=5 l=2
X133 a_5553_10507# a_10013_10507# DVSS sky130_fd_pr__res_high_po w=1.41 l=20.1
X134 a_5555_7857# EF_R2RVCE_0.comparator_bias_0.up DVSS sky130_fd_pr__res_high_po w=1.41 l=20.1
X135 a_5553_10507# a_10015_9447# DVSS sky130_fd_pr__res_high_po w=1.41 l=20.1
X136 a_1297_2982.t10 EF_AMUX2to1ISO_1.VO a_1355_5983.t7 VSS.t2 sky130_fd_pr__nfet_g5v0d10v5 ad=0.725 pd=5.29 as=0.725 ps=5.29 w=5 l=2
X137 DVSS.t264 EF_R2RVCE_0.sky130_fd_sc_hvl__inv_4_0.A EF_R2RVCE_0.sky130_fd_sc_hvl__inv_4_0.Y.t5 DVSS.t262 sky130_fd_pr__nfet_g5v0d10v5 ad=0.105 pd=1.03 as=0.105 ps=1.03 w=0.75 l=0.5
X138 DVSS.t192 SELB.t2 a_6271_n10609# DVSS.t191 sky130_fd_pr__nfet_01v8 ad=0.118 pd=1.12 as=0.248 ps=2.27 w=0.84 l=0.15
X139 EF_AMUX2to1ISO_1.single_ls_2tgwd_sw_1.single_ls_0.DOH.t1 a_7578_n10857# DVSS.t24 DVSS.t23 sky130_fd_pr__nfet_g5v0d10v5 ad=0.199 pd=2.03 as=0.122 ps=1.08 w=0.75 l=0.5
X140 EF_R2RVCE_0.comparator_0.VOUTANALOG.t0 EF_R2RVCE_0.sky130_fd_sc_hvl__inv_4_0.Y.t8 VSS.t10 VSS.t9 sky130_fd_pr__nfet_g5v0d10v5 ad=1.45 pd=10.6 as=1.45 ps=10.6 w=5 l=2
X141 VDD.t203 a_n227_n10525# a_980_n10861# VDD.t30 sky130_fd_pr__pfet_g5v0d10v5 ad=0.244 pd=1.83 as=0.398 ps=3.53 w=1.5 l=0.5
X142 DVSS.t161 a_10235_4600# a_10475_5424# DVSS.t160 sky130_fd_pr__nfet_g5v0d10v5 ad=0.199 pd=2.03 as=0.199 ps=2.03 w=0.75 l=0.5
X143 a_1755_6080.t3 a_1755_6080.t2 VSS.t56 VSS.t11 sky130_fd_pr__nfet_g5v0d10v5 ad=0.725 pd=5.29 as=0.725 ps=5.29 w=5 l=2
X144 VDD.t178 a_3606_n8490.t3 a_3611_n9515.t1 VDD.t177 sky130_fd_pr__pfet_g5v0d10v5 ad=0.145 pd=1.29 as=0.29 ps=2.58 w=1 l=0.5
X145 A2.t3 a_3606_n8490.t4 A2.t2 VDD.t96 sky130_fd_pr__pfet_g5v0d10v5 ad=0.29 pd=2.58 as=0 ps=0 w=1 l=0.5
X146 DVSS.t215 a_n327_n10613# a_n227_n10525# DVSS.t214 sky130_fd_pr__nfet_g5v0d10v5 ad=0.21 pd=1.78 as=0.21 ps=1.78 w=1.5 l=0.5
X147 VDD.t157 a_206_n3488.t5 a_211_n4513# VDD.t156 sky130_fd_pr__pfet_g5v0d10v5 ad=0.145 pd=1.29 as=0.29 ps=2.58 w=1 l=0.5
X148 a_6804_n8486.t0 EF_AMUX2to1ISO_1.single_ls_2tgwd_sw_1.single_ls_0.DOHB VDD.t119 VDD.t118 sky130_fd_pr__pfet_g5v0d10v5 ad=0.29 pd=2.58 as=0.145 ps=1.29 w=1 l=0.5
X149 DVSS.t164 EF_AMUX2to1ISO_1.single_ls_2tgwd_sw_0.single_ls_0.DOH.t3 EF_AMUX2to1ISO_1.single_ls_2tgwd_sw_0.single_ls_0.DOHB DVSS.t163 sky130_fd_pr__nfet_g5v0d10v5 ad=0.214 pd=2.07 as=0.105 ps=1.03 w=0.75 l=0.5
X150 a_10475_5424# a_10235_4600# DVSS.t159 DVSS.t154 sky130_fd_pr__nfet_g5v0d10v5 ad=0.105 pd=1.03 as=0.179 ps=1.26 w=0.75 l=0.5
X151 EF_R2RVCE_0.sky130_fd_sc_hvl__inv_4_0.Y.t3 EF_R2RVCE_0.sky130_fd_sc_hvl__inv_4_0.A VDD.t212 VDD.t208 sky130_fd_pr__pfet_g5v0d10v5 ad=0.21 pd=1.78 as=0.428 ps=3.57 w=1.5 l=0.5
X152 a_3606_n8490.t0 EF_AMUX2to1ISO_0.single_ls_2tgwd_sw_0.single_ls_0.DOHB VDD.t97 VDD.t96 sky130_fd_pr__pfet_g5v0d10v5 ad=0.29 pd=2.58 as=0.145 ps=1.29 w=1 l=0.5
X153 EF_AMUX2to1ISO_1.single_ls_2tgwd_sw_0.single_tg_0.VIN a_10209_n9511.t4 B2.t6 VDD.t100 sky130_fd_pr__pfet_g5v0d10v5 ad=0.29 pd=2.58 as=0.145 ps=1.29 w=1 l=0.5
X154 VDD.t110 EF_AMUX2to1ISO_1.single_ls_2tgwd_sw_1.single_ls_0.DOH.t4 EF_AMUX2to1ISO_1.single_ls_2tgwd_sw_1.single_ls_0.DOHB VDD.t109 sky130_fd_pr__pfet_g5v0d10v5 ad=0.428 pd=3.57 as=0.21 ps=1.78 w=1.5 l=0.5
X155 DVSS.t186 a_3606_n8490.t5 a_3611_n9515.t2 DVSS.t185 sky130_fd_pr__nfet_g5v0d10v5 ad=0.58 pd=4.58 as=0.58 ps=4.58 w=2 l=0.5
X156 VSS.t42 VSS.t41 VSS.t42 VSS.t11 sky130_fd_pr__nfet_g5v0d10v5 ad=0.725 pd=5.29 as=0 ps=0 w=5 l=2
X157 DVSS.t146 a_10914_2086# EF_R2RVCE_0.sky130_fd_sc_hvl__inv_4_0.A DVSS.t145 sky130_fd_pr__nfet_g5v0d10v5 ad=0.122 pd=1.08 as=0.199 ps=2.03 w=0.75 l=0.5
X158 DVSS.t152 a_206_n3488.t6 a_211_n4513# DVSS.t151 sky130_fd_pr__nfet_g5v0d10v5 ad=0.58 pd=4.58 as=0.58 ps=4.58 w=2 l=0.5
X159 a_10209_n9511.t0 a_10204_n8486.t7 VDD.t70 VDD.t69 sky130_fd_pr__pfet_g5v0d10v5 ad=0.29 pd=2.58 as=0.145 ps=1.29 w=1 l=0.5
X160 VDD.t68 EF_R2RVCE_0.comparator_0.VOUTANALOG.t9 a_8085_2982.t0 VDD.t67 sky130_fd_pr__pfet_g5v0d10v5 ad=1.45 pd=10.3 as=2.9 ps=20.6 w=10 l=2
X161 EF_AMUX2to1ISO_0.VO a_3606_n3488.t6 EF_AMUX2to1ISO_0.single_ls_2tgwd_sw_0.single_tg_0.VIN DVSS.t96 sky130_fd_pr__nfet_g5v0d10v5 ad=0.58 pd=4.58 as=0.29 ps=2.29 w=2 l=0.5
X162 B2.t5 a_10209_n9511.t5 B2.t4 DVSS.t95 sky130_fd_pr__nfet_g5v0d10v5 ad=0.58 pd=4.58 as=0 ps=0 w=2 l=0.5
X163 a_41_n11595# a_n327_n10613# DVDD.t34 DVDD.t33 sky130_fd_pr__pfet_01v8_hvt ad=0.248 pd=2.27 as=0.118 ps=1.12 w=0.84 l=0.15
X164 a_10180_3343# EN.t1 DVDD.t28 DVDD.t27 sky130_fd_pr__pfet_01v8_hvt ad=0.248 pd=2.27 as=0.118 ps=1.12 w=0.84 l=0.15
X165 EF_AMUX2to1ISO_1.VO a_10209_n4509# EF_AMUX2to1ISO_1.VO DVSS.t168 sky130_fd_pr__nfet_g5v0d10v5 ad=0.58 pd=4.58 as=4.64 ps=36.6 w=2 l=0.5
X166 EF_R2RVCE_0.sky130_fd_sc_hvl__inv_4_0.Y.t2 EF_R2RVCE_0.sky130_fd_sc_hvl__inv_4_0.A VDD.t211 VDD.t208 sky130_fd_pr__pfet_g5v0d10v5 ad=0.21 pd=1.78 as=0.21 ps=1.78 w=1.5 l=0.5
D2 DVSS.t111 EF_AMUX2to1ISO_1.single_ls_2tgwd_sw_0.single_ls_0.DOHB sky130_fd_pr__diode_pw2nd_05v5 pj=1.8e+06 area=2.025e+11
X167 VDD.t89 EF_AMUX2to1ISO_0.single_ls_2tgwd_sw_1.single_ls_0.DOHB a_206_n8490.t1 VDD.t88 sky130_fd_pr__pfet_g5v0d10v5 ad=0.145 pd=1.29 as=0.29 ps=2.58 w=1 l=0.5
X168 EF_AMUX2to1ISO_1.single_ls_2tgwd_sw_0.single_ls_0.DOHB EF_AMUX2to1ISO_1.single_ls_2tgwd_sw_0.single_ls_0.DOH.t4 DVSS.t166 DVSS.t165 sky130_fd_pr__nfet_g5v0d10v5 ad=0.105 pd=1.03 as=0.214 ps=2.07 w=0.75 l=0.5
X169 EF_AMUX2to1ISO_1.single_ls_2tgwd_sw_1.single_ls_0.DOHB EF_AMUX2to1ISO_1.single_ls_2tgwd_sw_1.single_ls_0.DOH.t5 VDD.t112 VDD.t111 sky130_fd_pr__pfet_g5v0d10v5 ad=0.21 pd=1.78 as=0.428 ps=3.57 w=1.5 l=0.5
X170 VSS.t15 a_1755_6080.t6 EF_R2RVCE_0.comparator_0.VOUTANALOG.t3 VSS.t11 sky130_fd_pr__nfet_g5v0d10v5 ad=0.725 pd=5.29 as=0.725 ps=5.29 w=5 l=2
X171 EF_AMUX2to1ISO_1.single_ls_2tgwd_sw_1.single_tg_0.VIN.t8 EF_AMUX2to1ISO_1.single_ls_2tgwd_sw_1.single_ls_0.DOH.t6 DVSS.t190 DVSS.t189 sky130_fd_pr__nfet_g5v0d10v5 ad=0.145 pd=1.58 as=0.145 ps=1.58 w=0.5 l=8
X172 VSS.t5 EF_R2RVCE_0.comparator_0.VBN.t11 a_1425_9823.t0 VSS.t4 sky130_fd_pr__nfet_g5v0d10v5 ad=0.725 pd=5.29 as=0.725 ps=5.29 w=5 l=2
X173 VDD.t2 a_1355_5983.t8 a_1755_6080.t5 VDD.t1 sky130_fd_pr__pfet_g5v0d10v5 ad=0.725 pd=5.29 as=0.725 ps=5.29 w=5 l=2
X174 DVSS.t250 a_10136_2294# a_10162_2241# DVSS.t247 sky130_fd_pr__nfet_g5v0d10v5 ad=0.21 pd=1.78 as=0.398 ps=3.53 w=1.5 l=0.5
X175 EF_AMUX2to1ISO_0.single_ls_2tgwd_sw_1.single_tg_0.VIN a_211_n4513# EF_AMUX2to1ISO_0.single_ls_2tgwd_sw_1.single_tg_0.VIN DVSS.t147 sky130_fd_pr__nfet_g5v0d10v5 ad=0.58 pd=4.58 as=4.2 ps=33.6 w=2 l=0.5
X176 VDD.t8 a_6804_n3484.t5 a_6809_n4509# VDD.t7 sky130_fd_pr__pfet_g5v0d10v5 ad=0.145 pd=1.29 as=0.29 ps=2.58 w=1 l=0.5
X177 EF_AMUX2to1ISO_0.single_ls_2tgwd_sw_0.single_tg_0.VIN EF_AMUX2to1ISO_0.single_ls_2tgwd_sw_0.single_ls_0.DOH.t2 DVSS.t244 DVSS.t243 sky130_fd_pr__nfet_g5v0d10v5 ad=0.145 pd=1.58 as=0.145 ps=1.58 w=0.5 l=8
X178 DVSS.t171 a_3173_n10525# a_4380_n10861# DVSS.t170 sky130_fd_pr__nfet_g5v0d10v5 ad=0.122 pd=1.08 as=0.199 ps=2.03 w=0.75 l=0.5
X179 DVSS.t241 a_10180_3343# a_10618_2709# DVSS.t235 sky130_fd_pr__nfet_g5v0d10v5 ad=0.21 pd=1.78 as=0.21 ps=1.78 w=1.5 l=0.5
X180 a_9771_n10521# a_9671_n10609# DVSS.t138 DVSS.t137 sky130_fd_pr__nfet_g5v0d10v5 ad=0.21 pd=1.78 as=0.21 ps=1.78 w=1.5 l=0.5
X181 a_1297_2982.t11 VSS.t39 VSS.t40 VSS.t2 sky130_fd_pr__nfet_g5v0d10v5 ad=0.725 pd=5.29 as=0.725 ps=5.29 w=5 l=2
X182 DVSS.t110 EF_AMUX2to1ISO_1.single_ls_2tgwd_sw_0.single_ls_0.DOHB a_10204_n3484.t2 DVSS.t109 sky130_fd_pr__nfet_g5v0d10v5 ad=0.58 pd=4.58 as=0.58 ps=4.58 w=2 l=0.5
D3 DVSS.t78 EF_AMUX2to1ISO_0.single_ls_2tgwd_sw_1.single_ls_0.DOHB sky130_fd_pr__diode_pw2nd_05v5 pj=1.8e+06 area=2.025e+11
X183 a_1755_1820.t4 a_1355_1794.t9 VSS.t12 VSS.t11 sky130_fd_pr__nfet_g5v0d10v5 ad=0.725 pd=5.29 as=0.725 ps=5.29 w=5 l=2
X184 DVSS.t62 a_6804_n3484.t6 a_6809_n4509# DVSS.t61 sky130_fd_pr__nfet_g5v0d10v5 ad=0.58 pd=4.58 as=0.58 ps=4.58 w=2 l=0.5
X185 EF_AMUX2to1ISO_1.single_ls_2tgwd_sw_0.DINL SELB.t3 DVDD.t26 DVDD.t25 sky130_fd_pr__pfet_g5v0d10v5 ad=0.21 pd=1.78 as=0.428 ps=3.57 w=1.5 l=0.5
X186 VDD.t210 EF_R2RVCE_0.sky130_fd_sc_hvl__inv_4_0.A EF_R2RVCE_0.sky130_fd_sc_hvl__inv_4_0.Y.t1 VDD.t208 sky130_fd_pr__pfet_g5v0d10v5 ad=0.21 pd=1.78 as=0.21 ps=1.78 w=1.5 l=0.5
X187 EF_AMUX2to1ISO_1.VO a_10204_n3484.t7 EF_AMUX2to1ISO_1.VO VDD.t193 sky130_fd_pr__pfet_g5v0d10v5 ad=0.29 pd=2.58 as=2.32 ps=20.6 w=1 l=0.5
X188 DVSS.t88 SELA.t6 EF_AMUX2to1ISO_0.single_ls_2tgwd_sw_0.DINL DVSS.t87 sky130_fd_pr__nfet_g5v0d10v5 ad=0.214 pd=2.07 as=0.105 ps=1.03 w=0.75 l=0.5
X189 VDD.t53 VDD.t51 VDD.t53 VDD.t52 sky130_fd_pr__pfet_g5v0d10v5 ad=0.725 pd=5.29 as=0 ps=0 w=5 l=2
X190 a_4503_2982.t5 a_4503_2982.t4 VDD.t166 VDD.t4 sky130_fd_pr__pfet_g5v0d10v5 ad=0.725 pd=5.29 as=0.725 ps=5.29 w=5 l=2
X191 a_41_n11595# a_n327_n10613# DVSS.t213 DVSS.t212 sky130_fd_pr__nfet_01v8 ad=0.248 pd=2.27 as=0.118 ps=1.12 w=0.84 l=0.15
X192 VDD.t95 EF_AMUX2to1ISO_0.single_ls_2tgwd_sw_0.single_ls_0.DOHB a_3606_n3488.t1 VDD.t94 sky130_fd_pr__pfet_g5v0d10v5 ad=0.145 pd=1.29 as=0.29 ps=2.58 w=1 l=0.5
X193 a_7064_n11635# a_6639_n11591# DVSS.t180 DVSS.t179 sky130_fd_pr__nfet_g5v0d10v5 ad=0.21 pd=1.78 as=0.398 ps=3.53 w=1.5 l=0.5
X194 EF_AMUX2to1ISO_1.single_ls_2tgwd_sw_1.single_ls_0.DOH.t0 a_7578_n10857# VDD.t13 VDD.t12 sky130_fd_pr__pfet_g5v0d10v5 ad=0.398 pd=3.53 as=0.244 ps=1.83 w=1.5 l=0.5
X195 a_1297_2982.t1 EF_R2RVCE_0.comparator_0.VBN.t12 VSS.t3 VSS.t2 sky130_fd_pr__nfet_g5v0d10v5 ad=0.725 pd=5.29 as=0.725 ps=5.29 w=5 l=2
X196 VDD.t188 a_9771_n10521# a_10464_n11635# VDD.t187 sky130_fd_pr__pfet_g5v0d10v5 ad=0.111 pd=1.37 as=0.137 ps=1.49 w=0.42 l=1
X197 a_4503_2982.t1 EF_AMUX2to1ISO_0.VO a_1297_2982.t5 VSS.t2 sky130_fd_pr__nfet_g5v0d10v5 ad=0.725 pd=5.29 as=0.725 ps=5.29 w=5 l=2
X198 B1.t5 a_6804_n8486.t7 EF_AMUX2to1ISO_1.single_ls_2tgwd_sw_1.single_tg_0.VIN.t16 DVSS.t73 sky130_fd_pr__nfet_g5v0d10v5 ad=0.29 pd=2.29 as=0.58 ps=4.58 w=2 l=0.5
X199 a_466_n11639# a_41_n11595# DVSS.t104 DVSS.t103 sky130_fd_pr__nfet_g5v0d10v5 ad=0.21 pd=1.78 as=0.398 ps=3.53 w=1.5 l=0.5
X200 A2.t1 a_3606_n8490.t6 EF_AMUX2to1ISO_0.single_ls_2tgwd_sw_0.single_tg_0.VIN DVSS.t222 sky130_fd_pr__nfet_g5v0d10v5 ad=0.29 pd=2.29 as=0.58 ps=4.58 w=2 l=0.5
X201 A2.t7 a_3611_n9515.t4 A2.t6 DVSS.t65 sky130_fd_pr__nfet_g5v0d10v5 ad=0.58 pd=4.58 as=0 ps=0 w=2 l=0.5
X202 EF_R2RVCE_0.comparator_bias_0.down EF_R2RVCE_0.comparator_0.VBN.t0 EF_R2RVCE_0.comparator_0.VBN.t1 VDD.t16 sky130_fd_pr__pfet_g5v0d10v5 ad=0.29 pd=2.58 as=0.29 ps=2.58 w=1 l=15