* NGSPICE file created from EF_R2RVC02.ext - technology: sky130A

.subckt EF_R2RVC02 VSS VO SELB A2 B2 B1 SELA DVSS A1 DVDD VDD
X0 a_1821_8526.t3 comparator_top_0.comparator_bias_0.VBN.t4 comparator_top_0.comparator_bias_0.VBN.t5 VDD.t68 sky130_fd_pr__pfet_g5v0d10v5 ad=0.29 pd=2.58 as=0.29 ps=2.58 w=1 l=15
X1 VSS.t52 VSS.t51 VSS.t52 VSS.t39 sky130_fd_pr__nfet_g5v0d10v5 ad=0.725 pd=5.29 as=0 ps=0 w=5 l=2
X2 VSS.t50 VSS.t48 VSS.t49 VSS.t32 sky130_fd_pr__nfet_g5v0d10v5 ad=1.45 pd=10.6 as=0 ps=0 w=5 l=2
X3 a_2551_4880.t1 a_2151_4783.t8 VDD.t138 VDD.t125 sky130_fd_pr__pfet_g5v0d10v5 ad=0.725 pd=5.29 as=0.725 ps=5.29 w=5 l=2
X4 comparator_top_0.comparator_0.VOUT a_8881_1782.t2 VDD.t143 VDD.t142 sky130_fd_pr__pfet_g5v0d10v5 ad=2.9 pd=20.6 as=1.45 ps=10.3 w=10 l=2
X5 a_570_n5724# a_470_n5812# DVSS.t117 DVSS.t116 sky130_fd_pr__nfet_g5v0d10v5 ad=0.398 pd=3.53 as=0.21 ps=1.78 w=1.5 l=0.5
X6 comparator_top_0.VINM EF_AMUX21m_2.array_1ls_1tgm_1.array_1tgm_0.tg4dm_1.holdb.t3 B1.t7 DVSS.t122 sky130_fd_pr__nfet_g5v0d10v5 ad=0.58 pd=4.58 as=0.29 ps=2.29 w=2 l=0.5
X7 DVSS.t74 a_570_n5724# a_1777_n6060# DVSS.t73 sky130_fd_pr__nfet_g5v0d10v5 ad=0.122 pd=1.08 as=0.199 ps=2.03 w=0.75 l=0.5
X8 VDD.t44 a_1821_8526.t6 a_2221_8623.t3 VDD.t43 sky130_fd_pr__pfet_g5v0d10v5 ad=1.45 pd=10.6 as=0.725 ps=5.29 w=5 l=2
X9 a_2093_3714.t7 comparator_top_0.comparator_bias_0.VBP.t4 VDD.t124 VDD.t97 sky130_fd_pr__pfet_g5v0d10v5 ad=0.725 pd=5.29 as=0.725 ps=5.29 w=5 l=2
X10 VDD.t122 EF_AMUX21m_1.array_1ls_1tgm_1.array_1tgm_0.tg4dm_1.holdb.t3 EF_AMUX21m_1.array_1ls_1tgm_1.array_1tgm_0.tg4dm_1.holdp.t1 VDD.t121 sky130_fd_pr__pfet_g5v0d10v5 ad=0.145 pd=1.29 as=0.29 ps=2.58 w=1 l=0.5
D0 DVSS.t12 EF_AMUX21m_2.array_1ls_1tgm_1.array_1tgm_0.s0 sky130_fd_pr__diode_pw2nd_05v5 pj=1.8e+06 area=2.025e+11
X11 a_6351_6657# a_10811_7187# DVSS sky130_fd_pr__res_high_po w=1.41 l=20.1
X12 VSS.t3 a_2151_594.t8 a_2551_620.t1 VSS.t2 sky130_fd_pr__nfet_g5v0d10v5 ad=0.725 pd=5.29 as=0.725 ps=5.29 w=5 l=2
X13 a_5299_3714.t7 comparator_top_0.VINP a_2093_3714.t3 VDD.t10 sky130_fd_pr__pfet_g5v0d10v5 ad=0.725 pd=5.29 as=0.725 ps=5.29 w=5 l=2
X14 DVSS.t187 a_3916_n5703# a_5123_n6039# DVSS.t186 sky130_fd_pr__nfet_g5v0d10v5 ad=0.122 pd=1.08 as=0.199 ps=2.03 w=0.75 l=0.5
X15 VSS.t60 comparator_top_0.comparator_bias_0.VBN.t9 a_2093_1782.t7 VSS.t4 sky130_fd_pr__nfet_g5v0d10v5 ad=0.725 pd=5.29 as=0.725 ps=5.29 w=5 l=2
X16 a_10542_n5707# a_10442_n5795# DVSS.t144 DVSS.t143 sky130_fd_pr__nfet_g5v0d10v5 ad=0.21 pd=1.78 as=0.398 ps=3.53 w=1.5 l=0.5
X17 a_2093_3714.t5 VDD.t101 VDD.t103 VDD.t102 sky130_fd_pr__pfet_g5v0d10v5 ad=0.725 pd=5.29 as=0.725 ps=5.29 w=5 l=2
X18 DVSS.t9 a_10965_3602# a_10975_4108# DVSS.t8 sky130_fd_pr__nfet_g5v0d10v5 ad=0.199 pd=2.03 as=0.199 ps=2.03 w=0.75 l=0.5
X19 a_7889_n6842# a_7464_n6798# DVSS.t185 DVSS.t184 sky130_fd_pr__nfet_g5v0d10v5 ad=0.398 pd=3.53 as=0.21 ps=1.78 w=1.5 l=0.5
X20 VDD.t100 VDD.t99 VDD.t100 VDD.t77 sky130_fd_pr__pfet_g5v0d10v5 ad=0.725 pd=5.29 as=0 ps=0 w=5 l=2
X21 DVSS.t175 a_10975_4108# VO.t1 DVSS.t174 sky130_fd_pr__nfet_01v8 ad=0.196 pd=2.01 as=0.196 ps=2.01 w=0.74 l=0.15
X22 DVSS.t84 EF_AMUX21m_1.array_1ls_1tgm_1.array_1tgm_0.tg4dm_1.holdb.t4 EF_AMUX21m_1.array_1ls_1tgm_1.array_1tgm_0.tg4dm_1.holdp.t2 DVSS.t83 sky130_fd_pr__nfet_g5v0d10v5 ad=0.58 pd=4.58 as=0.58 ps=4.58 w=2 l=0.5
X23 VDD.t9 EF_AMUX21m_2.array_1ls_1tgm_1.array_1tgm_0.s0 EF_AMUX21m_2.array_1ls_1tgm_1.array_1tgm_0.tg4dm_1.holdb.t1 VDD.t8 sky130_fd_pr__pfet_g5v0d10v5 ad=0.145 pd=1.29 as=0.29 ps=2.58 w=1 l=0.5
X24 EF_AMUX21m_2.array_1ls_1tgm_0.array_1tgm_0.tg4dm_1.holdp.t1 EF_AMUX21m_2.array_1ls_1tgm_0.array_1tgm_0.tg4dm_1.holdb.t3 VDD.t15 VDD.t14 sky130_fd_pr__pfet_g5v0d10v5 ad=0.29 pd=2.58 as=0.145 ps=1.29 w=1 l=0.5
X25 EF_AMUX21m_1.array_1ls_1tgm_0.l0 SELA.t0 DVDD.t7 DVDD.t6 sky130_fd_pr__pfet_g5v0d10v5 ad=0.21 pd=1.78 as=0.428 ps=3.57 w=1.5 l=0.5
X26 DVSS.t183 a_7464_n6798# a_7889_n6842# DVSS.t182 sky130_fd_pr__nfet_g5v0d10v5 ad=0.21 pd=1.78 as=0.21 ps=1.78 w=1.5 l=0.5
X27 DVDD.t21 EF_AMUX21m_2.array_1ls_1tgm_0.l0 a_10442_n5795# DVDD.t20 sky130_fd_pr__pfet_01v8_hvt ad=0.118 pd=1.12 as=0.248 ps=2.27 w=0.84 l=0.15
X28 a_7464_n6798# a_7096_n5816# DVDD.t11 DVDD.t10 sky130_fd_pr__pfet_01v8_hvt ad=0.248 pd=2.27 as=0.118 ps=1.12 w=0.84 l=0.15
X29 EF_AMUX21m_1.array_1ls_1tgm_0.array_1lsm_0.lsm_0.X a_5123_n6039# DVSS.t62 DVSS.t61 sky130_fd_pr__nfet_g5v0d10v5 ad=0.199 pd=2.03 as=0.122 ps=1.08 w=0.75 l=0.5
X30 a_4184_n6773# a_3816_n5791# DVDD.t25 DVDD.t24 sky130_fd_pr__pfet_01v8_hvt ad=0.248 pd=2.27 as=0.118 ps=1.12 w=0.84 l=0.15
X31 VSS.t47 VSS.t45 comparator_top_0.comparator_bias_0.VBN.t6 VSS.t46 sky130_fd_pr__nfet_g5v0d10v5 ad=1.45 pd=10.6 as=0.725 ps=5.29 w=5 l=2
X32 comparator_top_0.VINM EF_AMUX21m_2.array_1ls_1tgm_1.array_1tgm_0.tg4dm_1.holdp.t3 comparator_top_0.VINM DVSS.t18 sky130_fd_pr__nfet_g5v0d10v5 ad=0.58 pd=4.58 as=4.64 ps=36.6 w=2 l=0.5
X33 a_2093_3714.t2 comparator_top_0.VINP a_5299_3714.t6 VDD.t45 sky130_fd_pr__pfet_g5v0d10v5 ad=0.725 pd=5.29 as=0.725 ps=5.29 w=5 l=2
X34 VSS.t1 a_5299_620.t8 a_8881_1782.t0 VSS.t0 sky130_fd_pr__nfet_g5v0d10v5 ad=0.725 pd=5.29 as=1.45 ps=10.6 w=5 l=2
D1 DVSS.t47 EF_AMUX21m_2.array_1ls_1tgm_0.array_1tgm_0.s0 sky130_fd_pr__diode_pw2nd_05v5 pj=1.8e+06 area=2.025e+11
X35 DVSS.t14 EF_AMUX21m_2.array_1ls_1tgm_0.array_1tgm_0.tg4dm_1.holdb.t4 EF_AMUX21m_2.array_1ls_1tgm_0.array_1tgm_0.tg4dm_1.holdp.t2 DVSS.t13 sky130_fd_pr__nfet_g5v0d10v5 ad=0.58 pd=4.58 as=0.58 ps=4.58 w=2 l=0.5
X36 a_4609_n6817# a_4184_n6773# DVSS.t72 DVSS.t71 sky130_fd_pr__nfet_g5v0d10v5 ad=0.21 pd=1.78 as=0.398 ps=3.53 w=1.5 l=0.5
X37 EF_AMUX21m_1.array_1ls_1tgm_1.array_1lsm_0.lsm_0.X a_1777_n6060# VDD.t156 VDD.t108 sky130_fd_pr__pfet_g5v0d10v5 ad=0.398 pd=3.53 as=0.244 ps=1.83 w=1.5 l=0.5
X38 A1.t7 EF_AMUX21m_1.array_1ls_1tgm_1.array_1tgm_0.tg4dm_1.holdp.t3 comparator_top_0.VINP VDD.t4 sky130_fd_pr__pfet_g5v0d10v5 ad=0.145 pd=1.29 as=0.29 ps=2.58 w=1 l=0.5
X39 a_838_n6794# a_470_n5812# DVDD.t13 DVDD.t12 sky130_fd_pr__pfet_01v8_hvt ad=0.248 pd=2.27 as=0.118 ps=1.12 w=0.84 l=0.15
X40 DVSS.t60 comparator_top_0.comparator_0.VOUT a_11031_3400# DVSS.t59 sky130_fd_pr__nfet_g5v0d10v5 ad=0.179 pd=1.26 as=0.12 ps=1.41 w=0.42 l=0.5
X41 VSS.t44 VSS.t43 VSS.t44 VSS.t36 sky130_fd_pr__nfet_g5v0d10v5 ad=0.725 pd=5.29 as=0 ps=0 w=5 l=2
X42 VDD.t73 a_11235_n6821# a_10542_n5707# VDD.t72 sky130_fd_pr__pfet_g5v0d10v5 ad=0.214 pd=1.99 as=0.214 ps=1.99 w=0.42 l=1
X43 VDD.t98 VDD.t96 VDD.t98 VDD.t97 sky130_fd_pr__pfet_g5v0d10v5 ad=0.725 pd=5.29 as=0 ps=0 w=5 l=2
X44 a_2151_594.t7 comparator_top_0.VINM a_2093_3714.t11 VDD.t2 sky130_fd_pr__pfet_g5v0d10v5 ad=0.725 pd=5.29 as=0.725 ps=5.29 w=5 l=2
D2 DVSS.t81 EF_AMUX21m_1.array_1ls_1tgm_1.array_1tgm_0.s0 sky130_fd_pr__diode_pw2nd_05v5 pj=1.8e+06 area=2.025e+11
X45 comparator_top_0.comparator_bias_0.VBN.t0 a_2221_8623.t6 a_1821_8526.t0 VDD.t33 sky130_fd_pr__pfet_g5v0d10v5 ad=0.725 pd=5.29 as=1.45 ps=10.6 w=5 l=2
X46 a_7464_n6798# a_7096_n5816# DVSS.t104 DVSS.t103 sky130_fd_pr__nfet_01v8 ad=0.248 pd=2.27 as=0.118 ps=1.12 w=0.84 l=0.15
X47 EF_AMUX21m_2.array_1ls_1tgm_1.array_1tgm_0.s0 EF_AMUX21m_2.array_1ls_1tgm_1.array_1lsm_0.lsm_0.X DVSS.t24 DVSS.t23 sky130_fd_pr__nfet_g5v0d10v5 ad=0.105 pd=1.03 as=0.214 ps=2.07 w=0.75 l=0.5
X48 EF_AMUX21m_2.array_1ls_1tgm_0.array_1lsm_0.lsm_0.X a_11749_n6043# VDD.t116 VDD.t29 sky130_fd_pr__pfet_g5v0d10v5 ad=0.398 pd=3.53 as=0.244 ps=1.83 w=1.5 l=0.5
X49 VDD.t109 a_570_n5724# a_1777_n6060# VDD.t108 sky130_fd_pr__pfet_g5v0d10v5 ad=0.244 pd=1.83 as=0.398 ps=3.53 w=1.5 l=0.5
X50 a_5299_1782.t7 a_5299_1782.t6 VDD.t11 VDD.t10 sky130_fd_pr__pfet_g5v0d10v5 ad=0.725 pd=5.29 as=0.725 ps=5.29 w=5 l=2
X51 comparator_top_0.VINP EF_AMUX21m_1.array_1ls_1tgm_1.array_1tgm_0.tg4dm_1.holdp.t4 A1.t6 VDD.t5 sky130_fd_pr__pfet_g5v0d10v5 ad=0.29 pd=2.58 as=0.145 ps=1.29 w=1 l=0.5
X52 comparator_top_0.VINP EF_AMUX21m_1.array_1ls_1tgm_0.array_1tgm_0.tg4dm_1.holdb.t3 comparator_top_0.VINP VDD.t155 sky130_fd_pr__pfet_g5v0d10v5 ad=0.29 pd=2.58 as=2.32 ps=20.6 w=1 l=0.5
X53 a_7889_n6842# a_7464_n6798# DVSS.t181 DVSS.t180 sky130_fd_pr__nfet_g5v0d10v5 ad=0.21 pd=1.78 as=0.21 ps=1.78 w=1.5 l=0.5
X54 EF_AMUX21m_1.array_1ls_1tgm_0.array_1tgm_0.s0 EF_AMUX21m_1.array_1ls_1tgm_0.array_1lsm_0.lsm_0.X VDD.t64 VDD.t63 sky130_fd_pr__pfet_g5v0d10v5 ad=0.21 pd=1.78 as=0.428 ps=3.57 w=1.5 l=0.5
X55 comparator_top_0.comparator_0.VOUT a_8881_1782.t3 VSS.t67 VSS.t66 sky130_fd_pr__nfet_g5v0d10v5 ad=1.45 pd=10.6 as=0.725 ps=5.29 w=5 l=2
X56 EF_AMUX21m_1.array_1ls_1tgm_0.l0 SELA.t1 DVSS.t76 DVSS.t75 sky130_fd_pr__nfet_g5v0d10v5 ad=0.105 pd=1.03 as=0.214 ps=2.07 w=0.75 l=0.5
X57 DVSS.t46 EF_AMUX21m_2.array_1ls_1tgm_0.array_1tgm_0.s0 EF_AMUX21m_2.array_1ls_1tgm_0.array_1tgm_0.tg4dm_1.holdb.t2 DVSS.t45 sky130_fd_pr__nfet_g5v0d10v5 ad=0.58 pd=4.58 as=0.58 ps=4.58 w=2 l=0.5
X58 DVDD.t23 a_11271_4224# a_10975_4108# DVDD.t22 sky130_fd_pr__pfet_01v8_hvt ad=0.297 pd=2.77 as=0.297 ps=2.77 w=1.12 l=0.15
X59 a_11271_4224# a_11031_3400# DVSS.t92 DVSS.t87 sky130_fd_pr__nfet_g5v0d10v5 ad=0.105 pd=1.03 as=0.179 ps=1.26 w=0.75 l=0.5
X60 B1.t5 EF_AMUX21m_2.array_1ls_1tgm_1.array_1tgm_0.tg4dm_1.holdb.t4 B1.t4 VDD.t6 sky130_fd_pr__pfet_g5v0d10v5 ad=0.29 pd=2.58 as=0 ps=0 w=1 l=0.5
X61 VDD.t30 a_10542_n5707# a_11749_n6043# VDD.t29 sky130_fd_pr__pfet_g5v0d10v5 ad=0.244 pd=1.83 as=0.398 ps=3.53 w=1.5 l=0.5
X62 VDD.t139 a_2151_4783.t9 a_2551_4880.t0 VDD.t102 sky130_fd_pr__pfet_g5v0d10v5 ad=0.725 pd=5.29 as=0.725 ps=5.29 w=5 l=2
X63 a_2093_1782.t6 comparator_top_0.comparator_bias_0.VBN.t10 VSS.t59 VSS.t19 sky130_fd_pr__nfet_g5v0d10v5 ad=0.725 pd=5.29 as=0.725 ps=5.29 w=5 l=2
X64 comparator_top_0.VINM EF_AMUX21m_2.array_1ls_1tgm_0.array_1tgm_0.tg4dm_1.holdp.t3 B2.t3 VDD.t67 sky130_fd_pr__pfet_g5v0d10v5 ad=0.29 pd=2.58 as=0.145 ps=1.29 w=1 l=0.5
X65 a_838_n6794# a_470_n5812# DVSS.t115 DVSS.t114 sky130_fd_pr__nfet_01v8 ad=0.248 pd=2.27 as=0.118 ps=1.12 w=0.84 l=0.15
X66 a_2093_3714.t10 comparator_top_0.VINM a_2151_594.t6 VDD.t110 sky130_fd_pr__pfet_g5v0d10v5 ad=0.725 pd=5.29 as=0.725 ps=5.29 w=5 l=2
X67 a_11271_4224# a_10975_4108# DVDD.t28 DVDD.t26 sky130_fd_pr__pfet_01v8_hvt ad=0.297 pd=2.77 as=0.157 ps=1.4 w=1.12 l=0.15
X68 EF_AMUX21m_2.array_1ls_1tgm_0.l0 SELB.t0 DVDD.t9 DVDD.t8 sky130_fd_pr__pfet_g5v0d10v5 ad=0.21 pd=1.78 as=0.428 ps=3.57 w=1.5 l=0.5
X69 VDD.t159 a_3916_n5703# a_5123_n6039# VDD.t74 sky130_fd_pr__pfet_g5v0d10v5 ad=0.244 pd=1.83 as=0.398 ps=3.53 w=1.5 l=0.5
X70 a_3916_n5703# a_3816_n5791# DVSS.t173 DVSS.t172 sky130_fd_pr__nfet_g5v0d10v5 ad=0.398 pd=3.53 as=0.21 ps=1.78 w=1.5 l=0.5
X71 a_5299_1782.t3 comparator_top_0.VINP a_2093_1782.t0 VSS.t17 sky130_fd_pr__nfet_g5v0d10v5 ad=0.725 pd=5.29 as=0.725 ps=5.29 w=5 l=2
X72 VSS.t13 a_5299_3714.t8 a_5299_620.t2 VSS.t12 sky130_fd_pr__nfet_g5v0d10v5 ad=0.725 pd=5.29 as=0.725 ps=5.29 w=5 l=2
X73 DVSS.t171 a_3816_n5791# a_3916_n5703# DVSS.t170 sky130_fd_pr__nfet_g5v0d10v5 ad=0.21 pd=1.78 as=0.21 ps=1.78 w=1.5 l=0.5
X74 VDD.t95 VDD.t93 VDD.t94 VDD.t90 sky130_fd_pr__pfet_g5v0d10v5 ad=1.45 pd=10.6 as=0 ps=0 w=5 l=2
X75 VDD.t105 EF_AMUX21m_1.array_1ls_1tgm_0.array_1tgm_0.tg4dm_1.holdb.t4 EF_AMUX21m_1.array_1ls_1tgm_0.array_1tgm_0.tg4dm_1.holdp.t1 VDD.t104 sky130_fd_pr__pfet_g5v0d10v5 ad=0.145 pd=1.29 as=0.29 ps=2.58 w=1 l=0.5
X76 VDD.t46 a_5299_1782.t4 a_5299_1782.t5 VDD.t45 sky130_fd_pr__pfet_g5v0d10v5 ad=0.725 pd=5.29 as=0.725 ps=5.29 w=5 l=2
X77 comparator_top_0.comparator_bias_0.VBN.t3 comparator_top_0.comparator_bias_0.VBN.t2 VSS.t58 VSS.t57 sky130_fd_pr__nfet_g5v0d10v5 ad=0.725 pd=5.29 as=0.725 ps=5.29 w=5 l=2
X78 DVSS.t7 a_10965_3602# a_10975_4108# DVSS.t6 sky130_fd_pr__nfet_g5v0d10v5 ad=0.199 pd=2.03 as=0.199 ps=2.03 w=0.75 l=0.5
X79 EF_AMUX21m_1.array_1ls_1tgm_0.array_1lsm_0.lsm_0.X a_5123_n6039# VDD.t75 VDD.t74 sky130_fd_pr__pfet_g5v0d10v5 ad=0.398 pd=3.53 as=0.244 ps=1.83 w=1.5 l=0.5
X80 DVSS.t132 a_7196_n5728# a_8403_n6064# DVSS.t131 sky130_fd_pr__nfet_g5v0d10v5 ad=0.122 pd=1.08 as=0.199 ps=2.03 w=0.75 l=0.5
X81 a_2093_1782.t5 VSS.t41 VSS.t42 VSS.t2 sky130_fd_pr__nfet_g5v0d10v5 ad=0.725 pd=5.29 as=0.725 ps=5.29 w=5 l=2
X82 a_570_n5724# a_470_n5812# DVSS.t113 DVSS.t112 sky130_fd_pr__nfet_g5v0d10v5 ad=0.21 pd=1.78 as=0.21 ps=1.78 w=1.5 l=0.5
X83 a_10810_n6777# a_10442_n5795# DVSS.t142 DVSS.t141 sky130_fd_pr__nfet_01v8 ad=0.248 pd=2.27 as=0.118 ps=1.12 w=0.84 l=0.15
X84 EF_AMUX21m_1.array_1ls_1tgm_0.array_1tgm_0.s0 EF_AMUX21m_1.array_1ls_1tgm_0.array_1lsm_0.lsm_0.X DVSS.t55 DVSS.t54 sky130_fd_pr__nfet_g5v0d10v5 ad=0.105 pd=1.03 as=0.214 ps=2.07 w=0.75 l=0.5
X85 a_6349_9307# a_10809_9307# DVSS sky130_fd_pr__res_high_po w=1.41 l=20.1
X86 A2.t5 EF_AMUX21m_1.array_1ls_1tgm_0.array_1tgm_0.tg4dm_1.holdp.t3 comparator_top_0.VINP VDD.t35 sky130_fd_pr__pfet_g5v0d10v5 ad=0.145 pd=1.29 as=0.29 ps=2.58 w=1 l=0.5
X87 a_2151_4783.t3 a_2151_4783.t2 VDD.t3 VDD.t2 sky130_fd_pr__pfet_g5v0d10v5 ad=0.725 pd=5.29 as=0.725 ps=5.29 w=5 l=2
X88 DVDD.t19 SELB.t1 EF_AMUX21m_2.array_1ls_1tgm_0.l0 DVDD.t18 sky130_fd_pr__pfet_g5v0d10v5 ad=0.428 pd=3.57 as=0.21 ps=1.78 w=1.5 l=0.5
X89 EF_AMUX21m_2.array_1ls_1tgm_1.array_1tgm_0.s0 EF_AMUX21m_2.array_1ls_1tgm_1.array_1lsm_0.lsm_0.X VDD.t26 VDD.t25 sky130_fd_pr__pfet_g5v0d10v5 ad=0.21 pd=1.78 as=0.428 ps=3.57 w=1.5 l=0.5
X90 a_6351_7717# a_10811_7187# DVSS sky130_fd_pr__res_high_po w=1.41 l=20.1
X91 EF_AMUX21m_1.array_1ls_1tgm_0.array_1tgm_0.tg4dm_1.holdp.t0 EF_AMUX21m_1.array_1ls_1tgm_0.array_1tgm_0.tg4dm_1.holdb.t5 VDD.t36 VDD.t35 sky130_fd_pr__pfet_g5v0d10v5 ad=0.29 pd=2.58 as=0.145 ps=1.29 w=1 l=0.5
X92 DVSS.t41 a_10810_n6777# a_11235_n6821# DVSS.t40 sky130_fd_pr__nfet_g5v0d10v5 ad=0.21 pd=1.78 as=0.21 ps=1.78 w=1.5 l=0.5
X93 DVSS.t179 a_7464_n6798# a_7889_n6842# DVSS.t178 sky130_fd_pr__nfet_g5v0d10v5 ad=0.21 pd=1.78 as=0.21 ps=1.78 w=1.5 l=0.5
X94 a_1821_8526.t1 a_2221_8623.t7 comparator_top_0.comparator_bias_0.VBN.t1 VDD.t34 sky130_fd_pr__pfet_g5v0d10v5 ad=1.45 pd=10.6 as=0.725 ps=5.29 w=5 l=2
X95 a_7889_n6842# a_7464_n6798# DVSS.t177 DVSS.t176 sky130_fd_pr__nfet_g5v0d10v5 ad=0.21 pd=1.78 as=0.398 ps=3.53 w=1.5 l=0.5
X96 EF_AMUX21m_2.array_1ls_1tgm_1.array_1lsm_0.lsm_0.X a_8403_n6064# DVSS.t20 DVSS.t19 sky130_fd_pr__nfet_g5v0d10v5 ad=0.199 pd=2.03 as=0.122 ps=1.08 w=0.75 l=0.5
X97 B2.t5 EF_AMUX21m_2.array_1ls_1tgm_0.array_1tgm_0.tg4dm_1.holdb.t5 B2.t4 VDD.t16 sky130_fd_pr__pfet_g5v0d10v5 ad=0.29 pd=2.58 as=0 ps=0 w=1 l=0.5
X98 a_2093_1782.t3 comparator_top_0.VINP a_5299_1782.t2 VSS.t16 sky130_fd_pr__nfet_g5v0d10v5 ad=0.725 pd=5.29 as=0.725 ps=5.29 w=5 l=2
X99 DVSS.t189 EF_AMUX21m_1.array_1ls_1tgm_0.array_1tgm_0.tg4dm_1.holdb.t6 EF_AMUX21m_1.array_1ls_1tgm_0.array_1tgm_0.tg4dm_1.holdp.t2 DVSS.t188 sky130_fd_pr__nfet_g5v0d10v5 ad=0.58 pd=4.58 as=0.58 ps=4.58 w=2 l=0.5
X100 EF_AMUX21m_2.array_1ls_1tgm_0.l0 SELB.t2 DVSS.t149 DVSS.t148 sky130_fd_pr__nfet_g5v0d10v5 ad=0.105 pd=1.03 as=0.214 ps=2.07 w=0.75 l=0.5
X101 VSS.t40 VSS.t38 VSS.t40 VSS.t39 sky130_fd_pr__nfet_g5v0d10v5 ad=0.725 pd=5.29 as=0 ps=0 w=5 l=2
X102 comparator_top_0.VINM EF_AMUX21m_2.array_1ls_1tgm_0.array_1tgm_0.tg4dm_1.holdb.t6 B2.t7 DVSS.t44 sky130_fd_pr__nfet_g5v0d10v5 ad=0.58 pd=4.58 as=0.29 ps=2.29 w=2 l=0.5
X103 DVDD.t27 a_10975_4108# VO.t0 DVDD.t26 sky130_fd_pr__pfet_01v8_hvt ad=0.157 pd=1.4 as=0.297 ps=2.77 w=1.12 l=0.15
X104 a_2151_4783.t7 comparator_top_0.VINM a_2093_1782.t11 VSS.t10 sky130_fd_pr__nfet_g5v0d10v5 ad=0.725 pd=5.29 as=0.725 ps=5.29 w=5 l=2
X105 A2.t7 EF_AMUX21m_1.array_1ls_1tgm_0.array_1tgm_0.tg4dm_1.holdp.t4 A2.t6 DVSS.t105 sky130_fd_pr__nfet_g5v0d10v5 ad=0.58 pd=4.58 as=0 ps=0 w=2 l=0.5
X106 VDD.t111 a_2551_620.t4 a_2551_620.t5 VDD.t110 sky130_fd_pr__pfet_g5v0d10v5 ad=0.725 pd=5.29 as=0.725 ps=5.29 w=5 l=2
X107 DVSS.t91 a_11031_3400# a_10965_3602# DVSS.t90 sky130_fd_pr__nfet_g5v0d10v5 ad=0.179 pd=1.26 as=0.12 ps=1.41 w=0.42 l=0.5
X108 VSS.t64 a_5299_3714.t2 a_5299_3714.t3 VSS.t16 sky130_fd_pr__nfet_g5v0d10v5 ad=0.725 pd=5.29 as=0.725 ps=5.29 w=5 l=2
X109 a_2151_594.t5 comparator_top_0.VINM a_2093_3714.t9 VDD.t129 sky130_fd_pr__pfet_g5v0d10v5 ad=0.725 pd=5.29 as=0.725 ps=5.29 w=5 l=2
X110 EF_AMUX21m_1.array_1ls_1tgm_1.array_1tgm_0.tg4dm_1.holdp.t0 EF_AMUX21m_1.array_1ls_1tgm_1.array_1tgm_0.tg4dm_1.holdb.t5 VDD.t123 VDD.t4 sky130_fd_pr__pfet_g5v0d10v5 ad=0.29 pd=2.58 as=0.145 ps=1.29 w=1 l=0.5
X111 a_1263_n6838# a_838_n6794# DVSS.t161 DVSS.t160 sky130_fd_pr__nfet_g5v0d10v5 ad=0.398 pd=3.53 as=0.21 ps=1.78 w=1.5 l=0.5
X112 VDD.t92 VDD.t89 VDD.t91 VDD.t90 sky130_fd_pr__pfet_g5v0d10v5 ad=1.45 pd=10.6 as=0 ps=0 w=5 l=2
X113 DVSS.t89 a_11031_3400# a_11271_4224# DVSS.t87 sky130_fd_pr__nfet_g5v0d10v5 ad=0.105 pd=1.03 as=0.105 ps=1.03 w=0.75 l=0.5
X114 a_570_n5724# a_470_n5812# DVSS.t111 DVSS.t110 sky130_fd_pr__nfet_g5v0d10v5 ad=0.21 pd=1.78 as=0.398 ps=3.53 w=1.5 l=0.5
X115 DVSS.t31 SELB.t3 EF_AMUX21m_2.array_1ls_1tgm_0.l0 DVSS.t30 sky130_fd_pr__nfet_g5v0d10v5 ad=0.214 pd=2.07 as=0.105 ps=1.03 w=0.75 l=0.5
X116 EF_AMUX21m_2.array_1ls_1tgm_0.array_1tgm_0.s0 EF_AMUX21m_2.array_1ls_1tgm_0.array_1lsm_0.lsm_0.X VDD.t56 VDD.t55 sky130_fd_pr__pfet_g5v0d10v5 ad=0.21 pd=1.78 as=0.428 ps=3.57 w=1.5 l=0.5
X117 VDD.t66 a_1263_n6838# a_570_n5724# VDD.t65 sky130_fd_pr__pfet_g5v0d10v5 ad=0.214 pd=1.99 as=0.214 ps=1.99 w=0.42 l=1
X118 VSS.t37 VSS.t35 VSS.t37 VSS.t36 sky130_fd_pr__nfet_g5v0d10v5 ad=0.725 pd=5.29 as=0 ps=0 w=5 l=2
X119 DVSS.t80 EF_AMUX21m_1.array_1ls_1tgm_1.array_1tgm_0.s0 EF_AMUX21m_1.array_1ls_1tgm_1.array_1tgm_0.tg4dm_1.holdb.t2 DVSS.t79 sky130_fd_pr__nfet_g5v0d10v5 ad=0.58 pd=4.58 as=0.58 ps=4.58 w=2 l=0.5
X120 VDD.t42 a_1821_8526.t7 a_2221_8623.t2 VDD.t41 sky130_fd_pr__pfet_g5v0d10v5 ad=0.725 pd=5.29 as=0.725 ps=5.29 w=5 l=2
X121 a_6351_6657# a_1821_8526.t2 DVSS sky130_fd_pr__res_high_po w=1.41 l=20.1
X122 a_11235_n6821# a_10810_n6777# DVSS.t39 DVSS.t38 sky130_fd_pr__nfet_g5v0d10v5 ad=0.398 pd=3.53 as=0.21 ps=1.78 w=1.5 l=0.5
X123 a_6349_9307# a_10811_8247# DVSS sky130_fd_pr__res_high_po w=1.41 l=20.1
X124 VDD.t88 VDD.t87 VDD.t88 VDD.t12 sky130_fd_pr__pfet_g5v0d10v5 ad=0.725 pd=5.29 as=0 ps=0 w=5 l=2
X125 a_2093_1782.t10 comparator_top_0.VINM a_2151_4783.t6 VSS.t62 sky130_fd_pr__nfet_g5v0d10v5 ad=0.725 pd=5.29 as=0.725 ps=5.29 w=5 l=2
X126 comparator_top_0.comparator_bias_0.VBP.t3 comparator_top_0.comparator_bias_0.VBP.t2 VDD.t113 VDD.t112 sky130_fd_pr__pfet_g5v0d10v5 ad=1.45 pd=10.6 as=1.45 ps=10.6 w=5 l=2
X127 VDD.t150 EF_AMUX21m_2.array_1ls_1tgm_1.array_1tgm_0.tg4dm_1.holdb.t5 EF_AMUX21m_2.array_1ls_1tgm_1.array_1tgm_0.tg4dm_1.holdp.t1 VDD.t149 sky130_fd_pr__pfet_g5v0d10v5 ad=0.145 pd=1.29 as=0.29 ps=2.58 w=1 l=0.5
X128 a_10810_n6777# a_10442_n5795# DVDD.t17 DVDD.t16 sky130_fd_pr__pfet_01v8_hvt ad=0.248 pd=2.27 as=0.118 ps=1.12 w=0.84 l=0.15
X129 EF_AMUX21m_2.array_1ls_1tgm_1.array_1tgm_0.tg4dm_1.holdb.t0 EF_AMUX21m_2.array_1ls_1tgm_1.array_1tgm_0.s0 VDD.t7 VDD.t6 sky130_fd_pr__pfet_g5v0d10v5 ad=0.29 pd=2.58 as=0.145 ps=1.29 w=1 l=0.5
X130 comparator_top_0.VINM EF_AMUX21m_2.array_1ls_1tgm_0.array_1tgm_0.tg4dm_1.holdp.t4 comparator_top_0.VINM DVSS.t129 sky130_fd_pr__nfet_g5v0d10v5 ad=0.58 pd=4.58 as=0 ps=0 w=2 l=0.5
X131 a_7196_n5728# a_7096_n5816# DVSS.t102 DVSS.t101 sky130_fd_pr__nfet_g5v0d10v5 ad=0.398 pd=3.53 as=0.21 ps=1.78 w=1.5 l=0.5
X132 VSS.t34 VSS.t31 VSS.t33 VSS.t32 sky130_fd_pr__nfet_g5v0d10v5 ad=1.45 pd=10.6 as=0 ps=0 w=5 l=2
D3 DVSS.t17 EF_AMUX21m_1.array_1ls_1tgm_0.array_1tgm_0.s0 sky130_fd_pr__diode_pw2nd_05v5 pj=1.8e+06 area=2.025e+11
X133 comparator_top_0.VINM EF_AMUX21m_2.array_1ls_1tgm_1.array_1tgm_0.tg4dm_1.holdb.t6 comparator_top_0.VINM VDD.t151 sky130_fd_pr__pfet_g5v0d10v5 ad=0.29 pd=2.58 as=2.32 ps=20.6 w=1 l=0.5
X134 DVSS.t169 a_3816_n5791# a_3916_n5703# DVSS.t168 sky130_fd_pr__nfet_g5v0d10v5 ad=0.21 pd=1.78 as=0.21 ps=1.78 w=1.5 l=0.5
X135 A2.t1 EF_AMUX21m_1.array_1ls_1tgm_0.array_1tgm_0.tg4dm_1.holdb.t7 comparator_top_0.VINP DVSS.t121 sky130_fd_pr__nfet_g5v0d10v5 ad=0.29 pd=2.29 as=0.58 ps=4.58 w=2 l=0.5
X136 DVSS.t100 a_7096_n5816# a_7196_n5728# DVSS.t99 sky130_fd_pr__nfet_g5v0d10v5 ad=0.21 pd=1.78 as=0.21 ps=1.78 w=1.5 l=0.5
X137 comparator_top_0.comparator_bias_0.VBN.t7 a_2221_8623.t8 a_1821_8526.t4 VDD.t140 sky130_fd_pr__pfet_g5v0d10v5 ad=0.725 pd=5.29 as=0.725 ps=5.29 w=5 l=2
X138 VDD.t120 EF_AMUX21m_1.array_1ls_1tgm_1.array_1tgm_0.s0 EF_AMUX21m_1.array_1ls_1tgm_1.array_1tgm_0.tg4dm_1.holdb.t1 VDD.t119 sky130_fd_pr__pfet_g5v0d10v5 ad=0.145 pd=1.29 as=0.29 ps=2.58 w=1 l=0.5
X139 DVSS.t159 a_838_n6794# a_1263_n6838# DVSS.t158 sky130_fd_pr__nfet_g5v0d10v5 ad=0.21 pd=1.78 as=0.21 ps=1.78 w=1.5 l=0.5
X140 a_1263_n6838# a_838_n6794# DVSS.t157 DVSS.t156 sky130_fd_pr__nfet_g5v0d10v5 ad=0.21 pd=1.78 as=0.21 ps=1.78 w=1.5 l=0.5
X141 DVSS.t109 a_470_n5812# a_570_n5724# DVSS.t108 sky130_fd_pr__nfet_g5v0d10v5 ad=0.21 pd=1.78 as=0.21 ps=1.78 w=1.5 l=0.5
X142 EF_AMUX21m_2.array_1ls_1tgm_0.array_1tgm_0.s0 EF_AMUX21m_2.array_1ls_1tgm_0.array_1lsm_0.lsm_0.X DVSS.t51 DVSS.t50 sky130_fd_pr__nfet_g5v0d10v5 ad=0.105 pd=1.03 as=0.214 ps=2.07 w=0.75 l=0.5
X143 VSS.t56 comparator_top_0.comparator_bias_0.VBN.t11 a_2221_8623.t5 VSS.t55 sky130_fd_pr__nfet_g5v0d10v5 ad=0.725 pd=5.29 as=0.725 ps=5.29 w=5 l=2
X144 VDD.t52 EF_AMUX21m_2.array_1ls_1tgm_0.array_1tgm_0.s0 EF_AMUX21m_2.array_1ls_1tgm_0.array_1tgm_0.tg4dm_1.holdb.t1 VDD.t51 sky130_fd_pr__pfet_g5v0d10v5 ad=0.145 pd=1.29 as=0.29 ps=2.58 w=1 l=0.5
X145 DVSS.t37 a_10810_n6777# a_11235_n6821# DVSS.t36 sky130_fd_pr__nfet_g5v0d10v5 ad=0.21 pd=1.78 as=0.21 ps=1.78 w=1.5 l=0.5
X146 a_2551_620.t3 a_2551_620.t2 VDD.t132 VDD.t129 sky130_fd_pr__pfet_g5v0d10v5 ad=0.725 pd=5.29 as=0.725 ps=5.29 w=5 l=2
X147 a_2093_3714.t1 comparator_top_0.VINP a_5299_3714.t5 VDD.t60 sky130_fd_pr__pfet_g5v0d10v5 ad=0.725 pd=5.29 as=0.725 ps=5.29 w=5 l=2
X148 a_4609_n6817# a_4184_n6773# DVSS.t70 DVSS.t69 sky130_fd_pr__nfet_g5v0d10v5 ad=0.398 pd=3.53 as=0.21 ps=1.78 w=1.5 l=0.5
X149 DVDD.t5 SELA.t2 a_470_n5812# DVDD.t4 sky130_fd_pr__pfet_01v8_hvt ad=0.118 pd=1.12 as=0.248 ps=2.27 w=0.84 l=0.15
X150 a_11235_n6821# a_10810_n6777# DVSS.t35 DVSS.t34 sky130_fd_pr__nfet_g5v0d10v5 ad=0.21 pd=1.78 as=0.21 ps=1.78 w=1.5 l=0.5
X151 VSS.t68 a_2551_4880.t6 a_5299_620.t6 VSS.t15 sky130_fd_pr__nfet_g5v0d10v5 ad=0.725 pd=5.29 as=0.725 ps=5.29 w=5 l=2
X152 a_5299_620.t1 a_5299_3714.t9 VSS.t7 VSS.t6 sky130_fd_pr__nfet_g5v0d10v5 ad=0.725 pd=5.29 as=0.725 ps=5.29 w=5 l=2
X153 VDD.t20 EF_AMUX21m_1.array_1ls_1tgm_0.array_1tgm_0.s0 EF_AMUX21m_1.array_1ls_1tgm_0.array_1tgm_0.tg4dm_1.holdb.t1 VDD.t19 sky130_fd_pr__pfet_g5v0d10v5 ad=0.145 pd=1.29 as=0.29 ps=2.58 w=1 l=0.5
X154 A1.t5 EF_AMUX21m_1.array_1ls_1tgm_1.array_1tgm_0.tg4dm_1.holdp.t5 A1.t4 DVSS.t0 sky130_fd_pr__nfet_g5v0d10v5 ad=0.58 pd=4.58 as=0 ps=0 w=2 l=0.5
X155 DVSS.t16 EF_AMUX21m_1.array_1ls_1tgm_0.array_1tgm_0.s0 EF_AMUX21m_1.array_1ls_1tgm_0.array_1tgm_0.tg4dm_1.holdb.t2 DVSS.t15 sky130_fd_pr__nfet_g5v0d10v5 ad=0.58 pd=4.58 as=0.58 ps=4.58 w=2 l=0.5
X156 A1.t3 EF_AMUX21m_1.array_1ls_1tgm_1.array_1tgm_0.tg4dm_1.holdb.t6 comparator_top_0.VINP DVSS.t57 sky130_fd_pr__nfet_g5v0d10v5 ad=0.29 pd=2.29 as=0.58 ps=4.58 w=2 l=0.5
X157 EF_AMUX21m_2.array_1ls_1tgm_0.array_1tgm_0.tg4dm_1.holdb.t0 EF_AMUX21m_2.array_1ls_1tgm_0.array_1tgm_0.s0 VDD.t50 VDD.t16 sky130_fd_pr__pfet_g5v0d10v5 ad=0.29 pd=2.58 as=0.145 ps=1.29 w=1 l=0.5
X158 VDD.t13 a_5299_1782.t8 a_5299_620.t0 VDD.t12 sky130_fd_pr__pfet_g5v0d10v5 ad=0.725 pd=5.29 as=0.725 ps=5.29 w=5 l=2
X159 B1.t0 EF_AMUX21m_2.array_1ls_1tgm_1.array_1tgm_0.tg4dm_1.holdp.t4 comparator_top_0.VINM VDD.t31 sky130_fd_pr__pfet_g5v0d10v5 ad=0.145 pd=1.29 as=0.29 ps=2.58 w=1 l=0.5
X160 comparator_top_0.VINM EF_AMUX21m_2.array_1ls_1tgm_0.array_1tgm_0.tg4dm_1.holdb.t7 comparator_top_0.VINM VDD.t47 sky130_fd_pr__pfet_g5v0d10v5 ad=0.29 pd=2.58 as=0 ps=0 w=1 l=0.5
X161 DVSS.t120 EF_AMUX21m_1.array_1ls_1tgm_0.l0 a_3816_n5791# DVSS.t119 sky130_fd_pr__nfet_01v8 ad=0.118 pd=1.12 as=0.248 ps=2.27 w=0.84 l=0.15
X162 DVSS.t98 a_7096_n5816# a_7196_n5728# DVSS.t97 sky130_fd_pr__nfet_g5v0d10v5 ad=0.21 pd=1.78 as=0.21 ps=1.78 w=1.5 l=0.5
X163 B1.t3 EF_AMUX21m_2.array_1ls_1tgm_1.array_1tgm_0.tg4dm_1.holdp.t5 B1.t2 DVSS.t190 sky130_fd_pr__nfet_g5v0d10v5 ad=0.58 pd=4.58 as=0 ps=0 w=2 l=0.5
X164 a_3916_n5703# a_3816_n5791# DVSS.t167 DVSS.t166 sky130_fd_pr__nfet_g5v0d10v5 ad=0.21 pd=1.78 as=0.21 ps=1.78 w=1.5 l=0.5
X165 a_2221_8623.t1 a_1821_8526.t8 VDD.t40 VDD.t39 sky130_fd_pr__pfet_g5v0d10v5 ad=0.725 pd=5.29 as=1.45 ps=10.6 w=5 l=2
X166 VDD.t86 VDD.t84 a_2093_3714.t4 VDD.t85 sky130_fd_pr__pfet_g5v0d10v5 ad=0.725 pd=5.29 as=0.725 ps=5.29 w=5 l=2
X167 a_2151_4783.t5 comparator_top_0.VINM a_2093_1782.t9 VSS.t61 sky130_fd_pr__nfet_g5v0d10v5 ad=0.725 pd=5.29 as=0.725 ps=5.29 w=5 l=2
X168 a_7196_n5728# a_7096_n5816# DVSS.t96 DVSS.t95 sky130_fd_pr__nfet_g5v0d10v5 ad=0.21 pd=1.78 as=0.398 ps=3.53 w=1.5 l=0.5
X169 comparator_top_0.VINP EF_AMUX21m_1.array_1ls_1tgm_1.array_1tgm_0.tg4dm_1.holdb.t7 A1.t2 DVSS.t58 sky130_fd_pr__nfet_g5v0d10v5 ad=0.58 pd=4.58 as=0.29 ps=2.29 w=2 l=0.5
X170 DVSS.t128 SELA.t3 a_470_n5812# DVSS.t127 sky130_fd_pr__nfet_01v8 ad=0.118 pd=1.12 as=0.248 ps=2.27 w=0.84 l=0.15
X171 VDD.t107 a_570_n5724# a_1263_n6838# VDD.t106 sky130_fd_pr__pfet_g5v0d10v5 ad=0.111 pd=1.37 as=0.137 ps=1.49 w=0.42 l=1
X172 a_5299_620.t5 a_2551_4880.t7 VSS.t69 VSS.t14 sky130_fd_pr__nfet_g5v0d10v5 ad=0.725 pd=5.29 as=0.725 ps=5.29 w=5 l=2
X173 comparator_top_0.VINP EF_AMUX21m_1.array_1ls_1tgm_1.array_1tgm_0.tg4dm_1.holdb.t8 comparator_top_0.VINP VDD.t69 sky130_fd_pr__pfet_g5v0d10v5 ad=0.29 pd=2.58 as=0 ps=0 w=1 l=0.5
X174 A1.t1 EF_AMUX21m_1.array_1ls_1tgm_1.array_1tgm_0.tg4dm_1.holdb.t9 A1.t0 VDD.t117 sky130_fd_pr__pfet_g5v0d10v5 ad=0.29 pd=2.58 as=0 ps=0 w=1 l=0.5
X175 a_1263_n6838# a_838_n6794# DVSS.t155 DVSS.t154 sky130_fd_pr__nfet_g5v0d10v5 ad=0.21 pd=1.78 as=0.398 ps=3.53 w=1.5 l=0.5
X176 DVSS.t107 a_470_n5812# a_570_n5724# DVSS.t106 sky130_fd_pr__nfet_g5v0d10v5 ad=0.21 pd=1.78 as=0.21 ps=1.78 w=1.5 l=0.5
X177 a_2093_3714.t8 comparator_top_0.VINM a_2151_594.t4 VDD.t0 sky130_fd_pr__pfet_g5v0d10v5 ad=0.725 pd=5.29 as=0.725 ps=5.29 w=5 l=2
X178 VDD.t54 EF_AMUX21m_2.array_1ls_1tgm_0.array_1lsm_0.lsm_0.X EF_AMUX21m_2.array_1ls_1tgm_0.array_1tgm_0.s0 VDD.t53 sky130_fd_pr__pfet_g5v0d10v5 ad=0.428 pd=3.57 as=0.21 ps=1.78 w=1.5 l=0.5
X179 VDD.t28 a_10542_n5707# a_11235_n6821# VDD.t27 sky130_fd_pr__pfet_g5v0d10v5 ad=0.111 pd=1.37 as=0.137 ps=1.49 w=0.42 l=1
X180 VSS.t30 VSS.t29 VSS.t30 VSS.t12 sky130_fd_pr__nfet_g5v0d10v5 ad=0.725 pd=5.29 as=0 ps=0 w=5 l=2
X181 a_11271_4224# a_11031_3400# DVSS.t88 DVSS.t87 sky130_fd_pr__nfet_g5v0d10v5 ad=0.199 pd=2.03 as=0.105 ps=1.03 w=0.75 l=0.5
X182 a_11235_n6821# a_10810_n6777# DVSS.t33 DVSS.t32 sky130_fd_pr__nfet_g5v0d10v5 ad=0.21 pd=1.78 as=0.398 ps=3.53 w=1.5 l=0.5
X183 DVSS.t68 a_4184_n6773# a_4609_n6817# DVSS.t67 sky130_fd_pr__nfet_g5v0d10v5 ad=0.21 pd=1.78 as=0.21 ps=1.78 w=1.5 l=0.5
X184 a_2151_594.t3 a_2151_594.t2 VSS.t11 VSS.t10 sky130_fd_pr__nfet_g5v0d10v5 ad=0.725 pd=5.29 as=0.725 ps=5.29 w=5 l=2
X185 VSS.t65 a_2551_4880.t4 a_2551_4880.t5 VSS.t62 sky130_fd_pr__nfet_g5v0d10v5 ad=0.725 pd=5.29 as=0.725 ps=5.29 w=5 l=2
X186 a_10975_4108# a_10965_3602# DVSS.t5 DVSS.t3 sky130_fd_pr__nfet_g5v0d10v5 ad=0.105 pd=1.03 as=0.179 ps=1.26 w=0.75 l=0.5
X187 comparator_top_0.VINP EF_AMUX21m_1.array_1ls_1tgm_0.array_1tgm_0.tg4dm_1.holdp.t5 A2.t4 VDD.t154 sky130_fd_pr__pfet_g5v0d10v5 ad=0.29 pd=2.58 as=0.145 ps=1.29 w=1 l=0.5
X188 EF_AMUX21m_2.array_1ls_1tgm_0.array_1lsm_0.lsm_0.X a_11749_n6043# DVSS.t78 DVSS.t77 sky130_fd_pr__nfet_g5v0d10v5 ad=0.199 pd=2.03 as=0.122 ps=1.08 w=0.75 l=0.5
X189 a_2221_8623.t4 VSS.t26 VSS.t28 VSS.t27 sky130_fd_pr__nfet_g5v0d10v5 ad=0.725 pd=5.29 as=0.725 ps=5.29 w=5 l=2
X190 VDD.t114 a_2551_620.t6 a_5299_620.t4 VDD.t60 sky130_fd_pr__pfet_g5v0d10v5 ad=0.725 pd=5.29 as=0.725 ps=5.29 w=5 l=2
X191 VDD.t58 a_7889_n6842# a_7196_n5728# VDD.t57 sky130_fd_pr__pfet_g5v0d10v5 ad=0.214 pd=1.99 as=0.214 ps=1.99 w=0.42 l=1
X192 a_5299_3714.t4 comparator_top_0.VINP a_2093_3714.t0 VDD.t59 sky130_fd_pr__pfet_g5v0d10v5 ad=0.725 pd=5.29 as=0.725 ps=5.29 w=5 l=2
X193 B1.t6 EF_AMUX21m_2.array_1ls_1tgm_1.array_1tgm_0.tg4dm_1.holdb.t7 comparator_top_0.VINM DVSS.t27 sky130_fd_pr__nfet_g5v0d10v5 ad=0.29 pd=2.29 as=0.58 ps=4.58 w=2 l=0.5
X194 comparator_top_0.comparator_bias_0.VBP.t0 VSS.t23 VSS.t25 VSS.t24 sky130_fd_pr__nfet_g5v0d10v5 ad=0.725 pd=5.29 as=1.45 ps=10.6 w=5 l=2
X195 a_5299_3714.t1 a_5299_3714.t0 VSS.t63 VSS.t17 sky130_fd_pr__nfet_g5v0d10v5 ad=0.725 pd=5.29 as=0.725 ps=5.29 w=5 l=2
X196 a_10542_n5707# a_10442_n5795# DVSS.t140 DVSS.t139 sky130_fd_pr__nfet_g5v0d10v5 ad=0.398 pd=3.53 as=0.21 ps=1.78 w=1.5 l=0.5
X197 DVSS.t26 a_10542_n5707# a_11749_n6043# DVSS.t25 sky130_fd_pr__nfet_g5v0d10v5 ad=0.122 pd=1.08 as=0.199 ps=2.03 w=0.75 l=0.5
X198 DVDD.t3 SELA.t4 EF_AMUX21m_1.array_1ls_1tgm_0.l0 DVDD.t2 sky130_fd_pr__pfet_g5v0d10v5 ad=0.428 pd=3.57 as=0.21 ps=1.78 w=1.5 l=0.5
X199 DVDD.t1 SELB.t4 a_7096_n5816# DVDD.t0 sky130_fd_pr__pfet_01v8_hvt ad=0.118 pd=1.12 as=0.248 ps=2.27 w=0.84 l=0.15
X200 a_1821_8526.t5 a_2221_8623.t9 comparator_top_0.comparator_bias_0.VBN.t8 VDD.t141 sky130_fd_pr__pfet_g5v0d10v5 ad=0.725 pd=5.29 as=0.725 ps=5.29 w=5 l=2
X201 a_10965_3602# a_11031_3400# VDD.t128 VDD.t127 sky130_fd_pr__pfet_g5v0d10v5 ad=0.111 pd=1.37 as=0.12 ps=1.41 w=0.42 l=0.5
X202 a_11031_3400# comparator_top_0.comparator_0.VOUT VDD.t71 VDD.t70 sky130_fd_pr__pfet_g5v0d10v5 ad=0.111 pd=1.37 as=0.12 ps=1.41 w=0.42 l=0.5
X203 a_2093_1782.t2 comparator_top_0.VINP a_5299_1782.t1 VSS.t15 sky130_fd_pr__nfet_g5v0d10v5 ad=0.725 pd=5.29 as=0.725 ps=5.29 w=5 l=2
X204 a_2551_4880.t3 a_2551_4880.t2 VSS.t70 VSS.t61 sky130_fd_pr__nfet_g5v0d10v5 ad=0.725 pd=5.29 as=0.725 ps=5.29 w=5 l=2
X205 DVSS.t11 EF_AMUX21m_2.array_1ls_1tgm_1.array_1tgm_0.s0 EF_AMUX21m_2.array_1ls_1tgm_1.array_1tgm_0.tg4dm_1.holdb.t2 DVSS.t10 sky130_fd_pr__nfet_g5v0d10v5 ad=0.58 pd=4.58 as=0.58 ps=4.58 w=2 l=0.5
X206 DVSS.t49 EF_AMUX21m_2.array_1ls_1tgm_0.array_1lsm_0.lsm_0.X EF_AMUX21m_2.array_1ls_1tgm_0.array_1tgm_0.s0 DVSS.t48 sky130_fd_pr__nfet_g5v0d10v5 ad=0.214 pd=2.07 as=0.105 ps=1.03 w=0.75 l=0.5