* NGSPICE file created from EF_R2RVC02mf.ext - technology: sky130A

.subckt EF_R2RVC02mf a1 a2 b1 b2 vo sela selb vdd1p8 vss dvss vdd3p3
X0 a_1821_8526.t1 comparator_top_0.comparator_0.VBN.t3 comparator_top_0.comparator_0.VBN.t4 vdd3p3.t92 sky130_fd_pr__pfet_g5v0d10v5 ad=0p pd=0u as=0p ps=0u w=1e+06u l=1.5e+07u
X1 vss vss.t52 vss vss.t35 sky130_fd_pr__nfet_g5v0d10v5 ad=3.335e+13p pd=2.4334e+08u as=0p ps=0u w=5e+06u l=2e+06u
X2 vss.t51 vss.t49 vss.t50 vss.t26 sky130_fd_pr__nfet_g5v0d10v5 ad=0p pd=0u as=0p ps=0u w=5e+06u l=2e+06u
X3 a_2551_4880.t5 a_2151_4783.t8 vdd3p3.t5 vdd3p3.t4 sky130_fd_pr__pfet_g5v0d10v5 ad=0p pd=0u as=0p ps=0u w=5e+06u l=2e+06u
X4 comparator_top_0.comparator_0.VOUT a_8881_1782.t2 vdd3p3.t154 vdd3p3.t153 sky130_fd_pr__pfet_g5v0d10v5 ad=2.9e+12p pd=2.058e+07u as=0p ps=0u w=1e+07u l=2e+06u
X5 a_570_n5724.t5 a_470_n5812# dvss.t94 dvss.t93 sky130_fd_pr__nfet_g5v0d10v5 ad=0p pd=0u as=0p ps=0u w=1.5e+06u l=500000u
X6 EF_AMUX21m_2.array_1ls_1tgm_0.array_1tgm_0.tg4dm_1.out EF_AMUX21m_2.array_1ls_1tgm_1.array_1tgm_0.tg4dm_1.holdb.t3 b1.t1 dvss.t24 sky130_fd_pr__nfet_g5v0d10v5 ad=4.64e+12p pd=3.664e+07u as=0p ps=0u w=2e+06u l=500000u
X7 dvss.t158 a_570_n5724.t6 a_1777_n6060# dvss.t157 sky130_fd_pr__nfet_g5v0d10v5 ad=0p pd=0u as=1.9875e+11p ps=2.03e+06u w=750000u l=500000u
X8 vdd3p3.t107 a_1821_8526.t6 a_2221_8623.t5 vdd3p3.t106 sky130_fd_pr__pfet_g5v0d10v5 ad=0p pd=0u as=0p ps=0u w=5e+06u l=2e+06u
X9 a_2093_3714.t7 comparator_top_0.comparator_0.VBP.t4 vdd3p3.t150 vdd3p3.t63 sky130_fd_pr__pfet_g5v0d10v5 ad=0p pd=0u as=0p ps=0u w=5e+06u l=2e+06u
X10 vdd3p3.t129 EF_AMUX21m_1.array_1ls_1tgm_1.array_1tgm_0.tg4dm_1.holdb.t3 EF_AMUX21m_1.array_1ls_1tgm_1.array_1tgm_0.tg4dm_1.holdp.t1 vdd3p3.t128 sky130_fd_pr__pfet_g5v0d10v5 ad=0p pd=0u as=0p ps=0u w=1e+06u l=500000u
D0 dvss EF_AMUX21m_2.array_1ls_1tgm_1.array_1lsm_0.invm_0.sky130_fd_sc_hvl__inv_2_0.Y sky130_fd_pr__diode_pw2nd_05v5 pj=1.8e+06 area=2.025e+11
X11 a_6351_6657# a_10811_7187# dvss sky130_fd_pr__res_high_po w=1.41e+06u l=2.014e+07u
X12 vss.t80 a_2151_594.t8 a_2551_620.t1 vss.t40 sky130_fd_pr__nfet_g5v0d10v5 ad=0p pd=0u as=0p ps=0u w=5e+06u l=2e+06u
X13 a_5299_3714.t7 EF_AMUX21m_1.array_1ls_1tgm_0.array_1tgm_0.tg4dm_1.out a_2093_3714.t11 vdd3p3.t145 sky130_fd_pr__pfet_g5v0d10v5 ad=0p pd=0u as=0p ps=0u w=5e+06u l=2e+06u
X14 dvss.t164 a_3916_n5703.t6 a_5123_n6039# dvss.t163 sky130_fd_pr__nfet_g5v0d10v5 ad=0p pd=0u as=1.9875e+11p ps=2.03e+06u w=750000u l=500000u
X15 vss.t67 comparator_top_0.comparator_0.VBN.t9 a_2093_1782.t7 vss.t66 sky130_fd_pr__nfet_g5v0d10v5 ad=0p pd=0u as=0p ps=0u w=5e+06u l=2e+06u
X16 a_10542_n5707.t4 a_10442_n5795# dvss.t70 dvss.t69 sky130_fd_pr__nfet_g5v0d10v5 ad=0p pd=0u as=0p ps=0u w=1.5e+06u l=500000u
X17 a_2093_3714.t5 vdd3p3.t71 vdd3p3.t72 vdd3p3.t6 sky130_fd_pr__pfet_g5v0d10v5 ad=0p pd=0u as=0p ps=0u w=5e+06u l=2e+06u
X18 dvss.t181 a_10965_3602# a_10975_4108# dvss.t180 sky130_fd_pr__nfet_g5v0d10v5 ad=0p pd=0u as=6.075e+11p ps=6.12e+06u w=750000u l=500000u
X19 a_7889_n6842# a_7464_n6798# dvss.t17 dvss.t16 sky130_fd_pr__nfet_g5v0d10v5 ad=1.2375e+12p pd=1.065e+07u as=0p ps=0u w=1.5e+06u l=500000u
X20 vdd3p3 vdd3p3.t67 vdd3p3 vdd3p3.t34 sky130_fd_pr__pfet_g5v0d10v5 ad=4.40314e+13p pd=3.334e+08u as=0p ps=0u w=5e+06u l=2e+06u
X21 dvss.t28 a_10975_4108# vo.t1 dvss.t27 sky130_fd_pr__nfet_01v8 ad=0p pd=0u as=0p ps=0u w=740000u l=150000u
X22 dvss.t124 EF_AMUX21m_1.array_1ls_1tgm_1.array_1tgm_0.tg4dm_1.holdb.t4 EF_AMUX21m_1.array_1ls_1tgm_1.array_1tgm_0.tg4dm_1.holdp.t2 dvss.t123 sky130_fd_pr__nfet_g5v0d10v5 ad=0p pd=0u as=0p ps=0u w=2e+06u l=500000u
X23 vdd3p3.t32 EF_AMUX21m_2.array_1ls_1tgm_1.array_1lsm_0.invm_0.sky130_fd_sc_hvl__inv_2_0.Y EF_AMUX21m_2.array_1ls_1tgm_1.array_1tgm_0.tg4dm_1.holdb.t1 vdd3p3.t31 sky130_fd_pr__pfet_g5v0d10v5 ad=0p pd=0u as=0p ps=0u w=1e+06u l=500000u
X24 EF_AMUX21m_2.array_1ls_1tgm_0.array_1tgm_0.tg4dm_1.holdp.t1 EF_AMUX21m_2.array_1ls_1tgm_0.array_1tgm_0.tg4dm_1.holdb.t3 vdd3p3.t17 vdd3p3.t16 sky130_fd_pr__pfet_g5v0d10v5 ad=0p pd=0u as=0p ps=0u w=1e+06u l=500000u
X25 EF_AMUX21m_1.array_1ls_1tgm_0.array_1lsm_0.lsm_0.sky130_fd_sc_hvl__lsbuflv2hv_1_0.A sela.t0 vdd1p8.t22 vdd1p8.t21 sky130_fd_pr__pfet_g5v0d10v5 ad=4.2e+11p pd=3.56e+06u as=0p ps=0u w=1.5e+06u l=500000u
X26 dvss.t15 a_7464_n6798# a_7889_n6842# dvss.t14 sky130_fd_pr__nfet_g5v0d10v5 ad=0p pd=0u as=0p ps=0u w=1.5e+06u l=500000u
X27 vdd1p8.t24 EF_AMUX21m_2.array_1ls_1tgm_0.array_1lsm_0.lsm_0.sky130_fd_sc_hvl__lsbuflv2hv_1_0.A a_10442_n5795# vdd1p8.t23 sky130_fd_pr__pfet_01v8_hvt ad=0p pd=0u as=2.478e+11p ps=2.27e+06u w=840000u l=150000u
X28 a_7464_n6798# a_7096_n5816# vdd1p8.t28 vdd1p8.t27 sky130_fd_pr__pfet_01v8_hvt ad=2.478e+11p pd=2.27e+06u as=0p ps=0u w=840000u l=150000u
X29 EF_AMUX21m_1.array_1ls_1tgm_0.array_1lsm_0.invm_0.sky130_fd_sc_hvl__inv_2_0.A a_5123_n6039# dvss.t33 dvss.t32 sky130_fd_pr__nfet_g5v0d10v5 ad=1.9875e+11p pd=2.03e+06u as=0p ps=0u w=750000u l=500000u
X30 a_4184_n6773# a_3816_n5791# vdd1p8.t14 vdd1p8.t13 sky130_fd_pr__pfet_01v8_hvt ad=2.478e+11p pd=2.27e+06u as=0p ps=0u w=840000u l=150000u
X31 vss.t48 vss.t46 comparator_top_0.comparator_0.VBN.t8 vss.t47 sky130_fd_pr__nfet_g5v0d10v5 ad=0p pd=0u as=0p ps=0u w=5e+06u l=2e+06u
X32 EF_AMUX21m_2.array_1ls_1tgm_0.array_1tgm_0.tg4dm_1.out EF_AMUX21m_2.array_1ls_1tgm_1.array_1tgm_0.tg4dm_1.holdp.t3 EF_AMUX21m_2.array_1ls_1tgm_0.array_1tgm_0.tg4dm_1.out dvss.t18 sky130_fd_pr__nfet_g5v0d10v5 ad=0p pd=0u as=0p ps=0u w=2e+06u l=500000u
X33 a_2093_3714.t10 EF_AMUX21m_1.array_1ls_1tgm_0.array_1tgm_0.tg4dm_1.out a_5299_3714.t6 vdd3p3.t144 sky130_fd_pr__pfet_g5v0d10v5 ad=0p pd=0u as=0p ps=0u w=5e+06u l=2e+06u
X34 vss.t58 a_5299_620.t8 a_8881_1782.t0 vss.t57 sky130_fd_pr__nfet_g5v0d10v5 ad=0p pd=0u as=0p ps=0u w=5e+06u l=2e+06u
D1 dvss EF_AMUX21m_2.array_1ls_1tgm_0.array_1lsm_0.invm_0.sky130_fd_sc_hvl__inv_2_0.Y sky130_fd_pr__diode_pw2nd_05v5 pj=1.8e+06 area=2.025e+11
X35 dvss.t22 EF_AMUX21m_2.array_1ls_1tgm_0.array_1tgm_0.tg4dm_1.holdb.t4 EF_AMUX21m_2.array_1ls_1tgm_0.array_1tgm_0.tg4dm_1.holdp.t2 dvss.t21 sky130_fd_pr__nfet_g5v0d10v5 ad=0p pd=0u as=0p ps=0u w=2e+06u l=500000u
X36 a_4609_n6817# a_4184_n6773# dvss.t50 dvss.t49 sky130_fd_pr__nfet_g5v0d10v5 ad=1.2375e+12p pd=1.065e+07u as=0p ps=0u w=1.5e+06u l=500000u
X37 EF_AMUX21m_1.array_1ls_1tgm_1.array_1lsm_0.invm_0.sky130_fd_sc_hvl__inv_2_0.A a_1777_n6060# vdd3p3.t127 vdd3p3.t126 sky130_fd_pr__pfet_g5v0d10v5 ad=3.975e+11p pd=3.53e+06u as=0p ps=0u w=1.5e+06u l=500000u
X38 a1.t7 EF_AMUX21m_1.array_1ls_1tgm_1.array_1tgm_0.tg4dm_1.holdp.t3 EF_AMUX21m_1.array_1ls_1tgm_0.array_1tgm_0.tg4dm_1.out vdd3p3.t130 sky130_fd_pr__pfet_g5v0d10v5 ad=0p pd=0u as=2.32e+12p ps=2.064e+07u w=1e+06u l=500000u
X39 a_838_n6794# a_470_n5812# vdd1p8.t12 vdd1p8.t11 sky130_fd_pr__pfet_01v8_hvt ad=2.478e+11p pd=2.27e+06u as=0p ps=0u w=840000u l=150000u
X40 dvss.t120 comparator_top_0.comparator_0.VOUT a_11031_3400# dvss.t119 sky130_fd_pr__nfet_g5v0d10v5 ad=0p pd=0u as=1.197e+11p ps=1.41e+06u w=420000u l=500000u
X41 vss vss.t42 vss vss.t30 sky130_fd_pr__nfet_g5v0d10v5 ad=0p pd=0u as=0p ps=0u w=5e+06u l=2e+06u
X42 vdd3p3.t109 a_11235_n6821# a_10542_n5707.t5 vdd3p3.t108 sky130_fd_pr__pfet_g5v0d10v5 ad=0p pd=0u as=0p ps=0u w=420000u l=1e+06u
X43 vdd3p3 vdd3p3.t62 vdd3p3 vdd3p3.t63 sky130_fd_pr__pfet_g5v0d10v5 ad=0p pd=0u as=0p ps=0u w=5e+06u l=2e+06u
X44 a_2151_594.t3 EF_AMUX21m_2.array_1ls_1tgm_0.array_1tgm_0.tg4dm_1.out a_2093_3714.t0 vdd3p3.t27 sky130_fd_pr__pfet_g5v0d10v5 ad=0p pd=0u as=0p ps=0u w=5e+06u l=2e+06u
D2 dvss EF_AMUX21m_1.array_1ls_1tgm_1.array_1lsm_0.invm_0.sky130_fd_sc_hvl__inv_2_0.Y sky130_fd_pr__diode_pw2nd_05v5 pj=1.8e+06 area=2.025e+11
X45 comparator_top_0.comparator_0.VBN.t5 a_2221_8623.t6 a_1821_8526.t2 vdd3p3.t95 sky130_fd_pr__pfet_g5v0d10v5 ad=0p pd=0u as=0p ps=0u w=5e+06u l=2e+06u
X46 a_7464_n6798# a_7096_n5816# dvss.t195 dvss.t194 sky130_fd_pr__nfet_01v8 ad=2.478e+11p pd=2.27e+06u as=0p ps=0u w=840000u l=150000u
X47 EF_AMUX21m_2.array_1ls_1tgm_1.array_1lsm_0.invm_0.sky130_fd_sc_hvl__inv_2_0.Y EF_AMUX21m_2.array_1ls_1tgm_1.array_1lsm_0.invm_0.sky130_fd_sc_hvl__inv_2_0.A dvss.t168 dvss.t167 sky130_fd_pr__nfet_g5v0d10v5 ad=2.1e+11p pd=2.06e+06u as=0p ps=0u w=750000u l=500000u
X48 EF_AMUX21m_2.array_1ls_1tgm_0.array_1lsm_0.invm_0.sky130_fd_sc_hvl__inv_2_0.A a_11749_n6043# vdd3p3.t116 vdd3p3.t115 sky130_fd_pr__pfet_g5v0d10v5 ad=3.975e+11p pd=3.53e+06u as=0p ps=0u w=1.5e+06u l=500000u
X49 vdd3p3.t146 a_570_n5724.t7 a_1777_n6060# vdd3p3.t126 sky130_fd_pr__pfet_g5v0d10v5 ad=0p pd=0u as=3.975e+11p ps=3.53e+06u w=1.5e+06u l=500000u
X50 a_5299_1782.t3 a_5299_1782.t2 vdd3p3.t149 vdd3p3.t145 sky130_fd_pr__pfet_g5v0d10v5 ad=0p pd=0u as=0p ps=0u w=5e+06u l=2e+06u
X51 EF_AMUX21m_1.array_1ls_1tgm_0.array_1tgm_0.tg4dm_1.out EF_AMUX21m_1.array_1ls_1tgm_1.array_1tgm_0.tg4dm_1.holdp.t4 a1.t6 vdd3p3.t162 sky130_fd_pr__pfet_g5v0d10v5 ad=0p pd=0u as=0p ps=0u w=1e+06u l=500000u
X52 EF_AMUX21m_1.array_1ls_1tgm_0.array_1tgm_0.tg4dm_1.out EF_AMUX21m_1.array_1ls_1tgm_0.array_1tgm_0.tg4dm_1.holdb.t3 EF_AMUX21m_1.array_1ls_1tgm_0.array_1tgm_0.tg4dm_1.out vdd3p3.t169 sky130_fd_pr__pfet_g5v0d10v5 ad=0p pd=0u as=0p ps=0u w=1e+06u l=500000u
X53 a_7889_n6842# a_7464_n6798# dvss.t13 dvss.t12 sky130_fd_pr__nfet_g5v0d10v5 ad=0p pd=0u as=0p ps=0u w=1.5e+06u l=500000u
X54 EF_AMUX21m_1.array_1ls_1tgm_0.array_1lsm_0.invm_0.sky130_fd_sc_hvl__inv_2_0.Y EF_AMUX21m_1.array_1ls_1tgm_0.array_1lsm_0.invm_0.sky130_fd_sc_hvl__inv_2_0.A vdd3p3.t14 vdd3p3.t13 sky130_fd_pr__pfet_g5v0d10v5 ad=4.2e+11p pd=3.56e+06u as=0p ps=0u w=1.5e+06u l=500000u
X55 comparator_top_0.comparator_0.VOUT a_8881_1782.t3 vss.t82 vss.t81 sky130_fd_pr__nfet_g5v0d10v5 ad=1.45e+12p pd=1.058e+07u as=0p ps=0u w=5e+06u l=2e+06u
X56 EF_AMUX21m_1.array_1ls_1tgm_0.array_1lsm_0.lsm_0.sky130_fd_sc_hvl__lsbuflv2hv_1_0.A sela.t1 dvss.t26 dvss.t25 sky130_fd_pr__nfet_g5v0d10v5 ad=2.1e+11p pd=2.06e+06u as=0p ps=0u w=750000u l=500000u
X57 dvss.t142 EF_AMUX21m_2.array_1ls_1tgm_0.array_1lsm_0.invm_0.sky130_fd_sc_hvl__inv_2_0.Y EF_AMUX21m_2.array_1ls_1tgm_0.array_1tgm_0.tg4dm_1.holdb.t2 dvss.t141 sky130_fd_pr__nfet_g5v0d10v5 ad=0p pd=0u as=0p ps=0u w=2e+06u l=500000u
X58 vdd1p8.t10 a_11271_4224# a_10975_4108# vdd1p8.t9 sky130_fd_pr__pfet_01v8_hvt ad=0p pd=0u as=2.968e+11p ps=2.77e+06u w=1.12e+06u l=150000u
X59 a_11271_4224# a_11031_3400# dvss.t152 dvss.t147 sky130_fd_pr__nfet_g5v0d10v5 ad=6.075e+11p pd=6.12e+06u as=0p ps=0u w=750000u l=500000u
X60 b1.t3 EF_AMUX21m_2.array_1ls_1tgm_1.array_1tgm_0.tg4dm_1.holdb.t4 b1.t2 vdd3p3.t22 sky130_fd_pr__pfet_g5v0d10v5 ad=0p pd=0u as=0p ps=0u w=1e+06u l=500000u
X61 vdd3p3.t139 a_10542_n5707.t6 a_11749_n6043# vdd3p3.t115 sky130_fd_pr__pfet_g5v0d10v5 ad=0p pd=0u as=3.975e+11p ps=3.53e+06u w=1.5e+06u l=500000u
X62 vdd3p3.t7 a_2151_4783.t9 a_2551_4880.t4 vdd3p3.t6 sky130_fd_pr__pfet_g5v0d10v5 ad=0p pd=0u as=0p ps=0u w=5e+06u l=2e+06u
X63 a_2093_1782.t6 comparator_top_0.comparator_0.VBN.t10 vss.t65 vss.t7 sky130_fd_pr__nfet_g5v0d10v5 ad=0p pd=0u as=0p ps=0u w=5e+06u l=2e+06u
X64 EF_AMUX21m_2.array_1ls_1tgm_0.array_1tgm_0.tg4dm_1.out EF_AMUX21m_2.array_1ls_1tgm_0.array_1tgm_0.tg4dm_1.holdp.t3 b2.t5 vdd3p3.t159 sky130_fd_pr__pfet_g5v0d10v5 ad=2.32e+12p pd=2.064e+07u as=0p ps=0u w=1e+06u l=500000u
X65 a_838_n6794# a_470_n5812# dvss.t92 dvss.t91 sky130_fd_pr__nfet_01v8 ad=2.478e+11p pd=2.27e+06u as=0p ps=0u w=840000u l=150000u
X66 a_2093_3714.t3 EF_AMUX21m_2.array_1ls_1tgm_0.array_1tgm_0.tg4dm_1.out a_2151_594.t2 vdd3p3.t26 sky130_fd_pr__pfet_g5v0d10v5 ad=0p pd=0u as=0p ps=0u w=5e+06u l=2e+06u
X67 a_11271_4224# a_10975_4108# vdd1p8.t2 vdd1p8.t0 sky130_fd_pr__pfet_01v8_hvt ad=2.968e+11p pd=2.77e+06u as=0p ps=0u w=1.12e+06u l=150000u
X68 EF_AMUX21m_2.array_1ls_1tgm_0.array_1lsm_0.lsm_0.sky130_fd_sc_hvl__lsbuflv2hv_1_0.A selb.t0 vdd1p8.t16 vdd1p8.t15 sky130_fd_pr__pfet_g5v0d10v5 ad=4.2e+11p pd=3.56e+06u as=0p ps=0u w=1.5e+06u l=500000u
X69 vdd3p3.t152 a_3916_n5703.t7 a_5123_n6039# vdd3p3.t28 sky130_fd_pr__pfet_g5v0d10v5 ad=0p pd=0u as=3.975e+11p ps=3.53e+06u w=1.5e+06u l=500000u
X70 a_3916_n5703.t4 a_3816_n5791# dvss.t106 dvss.t105 sky130_fd_pr__nfet_g5v0d10v5 ad=0p pd=0u as=0p ps=0u w=1.5e+06u l=500000u
X71 a_5299_1782.t7 EF_AMUX21m_1.array_1ls_1tgm_0.array_1tgm_0.tg4dm_1.out a_2093_1782.t9 vss.t68 sky130_fd_pr__nfet_g5v0d10v5 ad=0p pd=0u as=0p ps=0u w=5e+06u l=2e+06u
X72 vss.t76 a_5299_3714.t8 a_5299_620.t4 vss.t21 sky130_fd_pr__nfet_g5v0d10v5 ad=0p pd=0u as=0p ps=0u w=5e+06u l=2e+06u
X73 dvss.t104 a_3816_n5791# a_3916_n5703.t3 dvss.t103 sky130_fd_pr__nfet_g5v0d10v5 ad=0p pd=0u as=0p ps=0u w=1.5e+06u l=500000u
X74 vdd3p3.t61 vdd3p3.t59 vdd3p3.t60 vdd3p3.t56 sky130_fd_pr__pfet_g5v0d10v5 ad=0p pd=0u as=0p ps=0u w=5e+06u l=2e+06u
X75 vdd3p3.t171 EF_AMUX21m_1.array_1ls_1tgm_0.array_1tgm_0.tg4dm_1.holdb.t4 EF_AMUX21m_1.array_1ls_1tgm_0.array_1tgm_0.tg4dm_1.holdp.t1 vdd3p3.t170 sky130_fd_pr__pfet_g5v0d10v5 ad=0p pd=0u as=0p ps=0u w=1e+06u l=500000u
X76 vdd3p3.t148 a_5299_1782.t0 a_5299_1782.t1 vdd3p3.t144 sky130_fd_pr__pfet_g5v0d10v5 ad=0p pd=0u as=0p ps=0u w=5e+06u l=2e+06u
X77 comparator_top_0.comparator_0.VBN.t2 comparator_top_0.comparator_0.VBN.t1 vss.t64 vss.t63 sky130_fd_pr__nfet_g5v0d10v5 ad=0p pd=0u as=0p ps=0u w=5e+06u l=2e+06u
X78 dvss.t179 a_10965_3602# a_10975_4108# dvss.t178 sky130_fd_pr__nfet_g5v0d10v5 ad=0p pd=0u as=0p ps=0u w=750000u l=500000u
X79 EF_AMUX21m_1.array_1ls_1tgm_0.array_1lsm_0.invm_0.sky130_fd_sc_hvl__inv_2_0.A a_5123_n6039# vdd3p3.t29 vdd3p3.t28 sky130_fd_pr__pfet_g5v0d10v5 ad=3.975e+11p pd=3.53e+06u as=0p ps=0u w=1.5e+06u l=500000u
X80 dvss.t108 a_7196_n5728.t6 a_8403_n6064# dvss.t107 sky130_fd_pr__nfet_g5v0d10v5 ad=0p pd=0u as=1.9875e+11p ps=2.03e+06u w=750000u l=500000u
X81 a_2093_1782.t5 vss.t39 vss.t41 vss.t40 sky130_fd_pr__nfet_g5v0d10v5 ad=0p pd=0u as=0p ps=0u w=5e+06u l=2e+06u
X82 a_570_n5724.t4 a_470_n5812# dvss.t90 dvss.t89 sky130_fd_pr__nfet_g5v0d10v5 ad=0p pd=0u as=0p ps=0u w=1.5e+06u l=500000u
X83 a_10810_n6777# a_10442_n5795# dvss.t68 dvss.t67 sky130_fd_pr__nfet_01v8 ad=2.478e+11p pd=2.27e+06u as=0p ps=0u w=840000u l=150000u
X84 EF_AMUX21m_1.array_1ls_1tgm_0.array_1lsm_0.invm_0.sky130_fd_sc_hvl__inv_2_0.Y EF_AMUX21m_1.array_1ls_1tgm_0.array_1lsm_0.invm_0.sky130_fd_sc_hvl__inv_2_0.A dvss.t7 dvss.t6 sky130_fd_pr__nfet_g5v0d10v5 ad=2.1e+11p pd=2.06e+06u as=0p ps=0u w=750000u l=500000u
X85 a_6349_9307# a_10809_9307# dvss sky130_fd_pr__res_high_po w=1.41e+06u l=2.014e+07u
X86 a2.t3 EF_AMUX21m_1.array_1ls_1tgm_0.array_1tgm_0.tg4dm_1.holdp.t3 EF_AMUX21m_1.array_1ls_1tgm_0.array_1tgm_0.tg4dm_1.out vdd3p3.t15 sky130_fd_pr__pfet_g5v0d10v5 ad=0p pd=0u as=0p ps=0u w=1e+06u l=500000u
X87 a_2151_4783.t7 a_2151_4783.t6 vdd3p3.t91 vdd3p3.t27 sky130_fd_pr__pfet_g5v0d10v5 ad=0p pd=0u as=0p ps=0u w=5e+06u l=2e+06u
X88 vdd1p8.t6 selb.t1 EF_AMUX21m_2.array_1ls_1tgm_0.array_1lsm_0.lsm_0.sky130_fd_sc_hvl__lsbuflv2hv_1_0.A vdd1p8.t5 sky130_fd_pr__pfet_g5v0d10v5 ad=0p pd=0u as=0p ps=0u w=1.5e+06u l=500000u
X89 EF_AMUX21m_2.array_1ls_1tgm_1.array_1lsm_0.invm_0.sky130_fd_sc_hvl__inv_2_0.Y EF_AMUX21m_2.array_1ls_1tgm_1.array_1lsm_0.invm_0.sky130_fd_sc_hvl__inv_2_0.A vdd3p3.t158 vdd3p3.t157 sky130_fd_pr__pfet_g5v0d10v5 ad=4.2e+11p pd=3.56e+06u as=0p ps=0u w=1.5e+06u l=500000u
X90 a_6351_7717# a_10811_7187# dvss sky130_fd_pr__res_high_po w=1.41e+06u l=2.014e+07u
X91 EF_AMUX21m_1.array_1ls_1tgm_0.array_1tgm_0.tg4dm_1.holdp.t0 EF_AMUX21m_1.array_1ls_1tgm_0.array_1tgm_0.tg4dm_1.holdb.t5 vdd3p3.t114 vdd3p3.t15 sky130_fd_pr__pfet_g5v0d10v5 ad=0p pd=0u as=0p ps=0u w=1e+06u l=500000u
X92 dvss.t134 a_10810_n6777# a_11235_n6821# dvss.t133 sky130_fd_pr__nfet_g5v0d10v5 ad=0p pd=0u as=1.2375e+12p ps=1.065e+07u w=1.5e+06u l=500000u
X93 dvss.t11 a_7464_n6798# a_7889_n6842# dvss.t10 sky130_fd_pr__nfet_g5v0d10v5 ad=0p pd=0u as=0p ps=0u w=1.5e+06u l=500000u
X94 a_1821_8526.t3 a_2221_8623.t7 comparator_top_0.comparator_0.VBN.t6 vdd3p3.t96 sky130_fd_pr__pfet_g5v0d10v5 ad=0p pd=0u as=0p ps=0u w=5e+06u l=2e+06u
X95 a_7889_n6842# a_7464_n6798# dvss.t9 dvss.t8 sky130_fd_pr__nfet_g5v0d10v5 ad=0p pd=0u as=0p ps=0u w=1.5e+06u l=500000u
X96 EF_AMUX21m_2.array_1ls_1tgm_1.array_1lsm_0.invm_0.sky130_fd_sc_hvl__inv_2_0.A a_8403_n6064# dvss.t160 dvss.t159 sky130_fd_pr__nfet_g5v0d10v5 ad=1.9875e+11p pd=2.03e+06u as=0p ps=0u w=750000u l=500000u
X97 b2.t3 EF_AMUX21m_2.array_1ls_1tgm_0.array_1tgm_0.tg4dm_1.holdb.t5 b2.t2 vdd3p3.t18 sky130_fd_pr__pfet_g5v0d10v5 ad=0p pd=0u as=0p ps=0u w=1e+06u l=500000u
X98 a_2093_1782.t8 EF_AMUX21m_1.array_1ls_1tgm_0.array_1tgm_0.tg4dm_1.out a_5299_1782.t6 vss.t0 sky130_fd_pr__nfet_g5v0d10v5 ad=0p pd=0u as=0p ps=0u w=5e+06u l=2e+06u
X99 dvss.t111 EF_AMUX21m_1.array_1ls_1tgm_0.array_1tgm_0.tg4dm_1.holdb.t6 EF_AMUX21m_1.array_1ls_1tgm_0.array_1tgm_0.tg4dm_1.holdp.t2 dvss.t110 sky130_fd_pr__nfet_g5v0d10v5 ad=0p pd=0u as=0p ps=0u w=2e+06u l=500000u
X100 EF_AMUX21m_2.array_1ls_1tgm_0.array_1lsm_0.lsm_0.sky130_fd_sc_hvl__lsbuflv2hv_1_0.A selb.t2 dvss.t40 dvss.t39 sky130_fd_pr__nfet_g5v0d10v5 ad=2.1e+11p pd=2.06e+06u as=0p ps=0u w=750000u l=500000u
X101 vss vss.t34 vss vss.t35 sky130_fd_pr__nfet_g5v0d10v5 ad=0p pd=0u as=0p ps=0u w=5e+06u l=2e+06u
X102 EF_AMUX21m_2.array_1ls_1tgm_0.array_1tgm_0.tg4dm_1.out EF_AMUX21m_2.array_1ls_1tgm_0.array_1tgm_0.tg4dm_1.holdb.t6 b2.t1 dvss.t23 sky130_fd_pr__nfet_g5v0d10v5 ad=0p pd=0u as=0p ps=0u w=2e+06u l=500000u
X103 vdd1p8.t1 a_10975_4108# vo.t0 vdd1p8.t0 sky130_fd_pr__pfet_01v8_hvt ad=0p pd=0u as=0p ps=0u w=1.12e+06u l=150000u
X104 a_2151_4783.t0 EF_AMUX21m_2.array_1ls_1tgm_0.array_1tgm_0.tg4dm_1.out a_2093_1782.t3 vss.t5 sky130_fd_pr__nfet_g5v0d10v5 ad=0p pd=0u as=0p ps=0u w=5e+06u l=2e+06u
X105 a2.t1 EF_AMUX21m_1.array_1ls_1tgm_0.array_1tgm_0.tg4dm_1.holdp.t4 a2.t0 dvss.t109 sky130_fd_pr__nfet_g5v0d10v5 ad=0p pd=0u as=0p ps=0u w=2e+06u l=500000u
X106 vdd3p3.t168 a_2551_620.t4 a_2551_620.t5 vdd3p3.t26 sky130_fd_pr__pfet_g5v0d10v5 ad=0p pd=0u as=0p ps=0u w=5e+06u l=2e+06u
X107 dvss.t151 a_11031_3400# a_10965_3602# dvss.t150 sky130_fd_pr__nfet_g5v0d10v5 ad=0p pd=0u as=1.197e+11p ps=1.41e+06u w=420000u l=500000u
X108 vss.t1 a_5299_3714.t2 a_5299_3714.t3 vss.t0 sky130_fd_pr__nfet_g5v0d10v5 ad=0p pd=0u as=0p ps=0u w=5e+06u l=2e+06u
X109 a_2151_594.t1 EF_AMUX21m_2.array_1ls_1tgm_0.array_1tgm_0.tg4dm_1.out a_2093_3714.t2 vdd3p3.t9 sky130_fd_pr__pfet_g5v0d10v5 ad=0p pd=0u as=0p ps=0u w=5e+06u l=2e+06u
X110 EF_AMUX21m_1.array_1ls_1tgm_1.array_1tgm_0.tg4dm_1.holdp.t0 EF_AMUX21m_1.array_1ls_1tgm_1.array_1tgm_0.tg4dm_1.holdb.t5 vdd3p3.t131 vdd3p3.t130 sky130_fd_pr__pfet_g5v0d10v5 ad=0p pd=0u as=0p ps=0u w=1e+06u l=500000u
X111 a_1263_n6838# a_838_n6794# dvss.t80 dvss.t79 sky130_fd_pr__nfet_g5v0d10v5 ad=1.2375e+12p pd=1.065e+07u as=0p ps=0u w=1.5e+06u l=500000u
X112 vdd3p3.t58 vdd3p3.t55 vdd3p3.t57 vdd3p3.t56 sky130_fd_pr__pfet_g5v0d10v5 ad=0p pd=0u as=0p ps=0u w=5e+06u l=2e+06u
X113 dvss.t149 a_11031_3400# a_11271_4224# dvss.t147 sky130_fd_pr__nfet_g5v0d10v5 ad=0p pd=0u as=0p ps=0u w=750000u l=500000u
X114 a_570_n5724.t3 a_470_n5812# dvss.t88 dvss.t87 sky130_fd_pr__nfet_g5v0d10v5 ad=0p pd=0u as=0p ps=0u w=1.5e+06u l=500000u
X115 dvss.t170 selb.t3 EF_AMUX21m_2.array_1ls_1tgm_0.array_1lsm_0.lsm_0.sky130_fd_sc_hvl__lsbuflv2hv_1_0.A dvss.t169 sky130_fd_pr__nfet_g5v0d10v5 ad=0p pd=0u as=0p ps=0u w=750000u l=500000u
X116 EF_AMUX21m_2.array_1ls_1tgm_0.array_1lsm_0.invm_0.sky130_fd_sc_hvl__inv_2_0.Y EF_AMUX21m_2.array_1ls_1tgm_0.array_1lsm_0.invm_0.sky130_fd_sc_hvl__inv_2_0.A vdd3p3.t123 vdd3p3.t122 sky130_fd_pr__pfet_g5v0d10v5 ad=4.2e+11p pd=3.56e+06u as=0p ps=0u w=1.5e+06u l=500000u
X117 vdd3p3.t94 a_1263_n6838# a_570_n5724.t0 vdd3p3.t93 sky130_fd_pr__pfet_g5v0d10v5 ad=0p pd=0u as=0p ps=0u w=420000u l=1e+06u
X118 vss vss.t29 vss vss.t30 sky130_fd_pr__nfet_g5v0d10v5 ad=0p pd=0u as=0p ps=0u w=5e+06u l=2e+06u
X119 dvss.t1 EF_AMUX21m_1.array_1ls_1tgm_1.array_1lsm_0.invm_0.sky130_fd_sc_hvl__inv_2_0.Y EF_AMUX21m_1.array_1ls_1tgm_1.array_1tgm_0.tg4dm_1.holdb.t2 dvss.t0 sky130_fd_pr__nfet_g5v0d10v5 ad=0p pd=0u as=0p ps=0u w=2e+06u l=500000u
X120 vdd3p3.t105 a_1821_8526.t7 a_2221_8623.t4 vdd3p3.t104 sky130_fd_pr__pfet_g5v0d10v5 ad=0p pd=0u as=0p ps=0u w=5e+06u l=2e+06u
X121 a_6351_6657# a_1821_8526.t5 dvss sky130_fd_pr__res_high_po w=1.41e+06u l=2.014e+07u
X122 a_11235_n6821# a_10810_n6777# dvss.t132 dvss.t131 sky130_fd_pr__nfet_g5v0d10v5 ad=0p pd=0u as=0p ps=0u w=1.5e+06u l=500000u
X123 a_6349_9307# a_10811_8247# dvss sky130_fd_pr__res_high_po w=1.41e+06u l=2.014e+07u
X124 vdd3p3 vdd3p3.t50 vdd3p3 vdd3p3.t51 sky130_fd_pr__pfet_g5v0d10v5 ad=0p pd=0u as=0p ps=0u w=5e+06u l=2e+06u
X125 a_2093_1782.t2 EF_AMUX21m_2.array_1ls_1tgm_0.array_1tgm_0.tg4dm_1.out a_2151_4783.t3 vss.t4 sky130_fd_pr__nfet_g5v0d10v5 ad=0p pd=0u as=0p ps=0u w=5e+06u l=2e+06u
X126 comparator_top_0.comparator_0.VBP.t3 comparator_top_0.comparator_0.VBP.t2 vdd3p3.t74 vdd3p3.t73 sky130_fd_pr__pfet_g5v0d10v5 ad=0p pd=0u as=0p ps=0u w=5e+06u l=2e+06u
X127 vdd3p3.t24 EF_AMUX21m_2.array_1ls_1tgm_1.array_1tgm_0.tg4dm_1.holdb.t5 EF_AMUX21m_2.array_1ls_1tgm_1.array_1tgm_0.tg4dm_1.holdp.t1 vdd3p3.t23 sky130_fd_pr__pfet_g5v0d10v5 ad=0p pd=0u as=0p ps=0u w=1e+06u l=500000u
X128 a_10810_n6777# a_10442_n5795# vdd1p8.t4 vdd1p8.t3 sky130_fd_pr__pfet_01v8_hvt ad=2.478e+11p pd=2.27e+06u as=0p ps=0u w=840000u l=150000u
X129 EF_AMUX21m_2.array_1ls_1tgm_1.array_1tgm_0.tg4dm_1.holdb.t0 EF_AMUX21m_2.array_1ls_1tgm_1.array_1lsm_0.invm_0.sky130_fd_sc_hvl__inv_2_0.Y vdd3p3.t30 vdd3p3.t22 sky130_fd_pr__pfet_g5v0d10v5 ad=0p pd=0u as=0p ps=0u w=1e+06u l=500000u
X130 EF_AMUX21m_2.array_1ls_1tgm_0.array_1tgm_0.tg4dm_1.out EF_AMUX21m_2.array_1ls_1tgm_0.array_1tgm_0.tg4dm_1.holdp.t4 EF_AMUX21m_2.array_1ls_1tgm_0.array_1tgm_0.tg4dm_1.out dvss.t30 sky130_fd_pr__nfet_g5v0d10v5 ad=0p pd=0u as=0p ps=0u w=2e+06u l=500000u
X131 a_7196_n5728.t5 a_7096_n5816# dvss.t193 dvss.t192 sky130_fd_pr__nfet_g5v0d10v5 ad=0p pd=0u as=0p ps=0u w=1.5e+06u l=500000u
X132 vss.t28 vss.t25 vss.t27 vss.t26 sky130_fd_pr__nfet_g5v0d10v5 ad=0p pd=0u as=0p ps=0u w=5e+06u l=2e+06u
D3 dvss EF_AMUX21m_1.array_1ls_1tgm_0.array_1lsm_0.invm_0.sky130_fd_sc_hvl__inv_2_0.Y sky130_fd_pr__diode_pw2nd_05v5 pj=1.8e+06 area=2.025e+11
X133 EF_AMUX21m_2.array_1ls_1tgm_0.array_1tgm_0.tg4dm_1.out EF_AMUX21m_2.array_1ls_1tgm_1.array_1tgm_0.tg4dm_1.holdb.t6 EF_AMUX21m_2.array_1ls_1tgm_0.array_1tgm_0.tg4dm_1.out vdd3p3.t117 sky130_fd_pr__pfet_g5v0d10v5 ad=0p pd=0u as=0p ps=0u w=1e+06u l=500000u
X134 dvss.t102 a_3816_n5791# a_3916_n5703.t2 dvss.t101 sky130_fd_pr__nfet_g5v0d10v5 ad=0p pd=0u as=0p ps=0u w=1.5e+06u l=500000u
X135 a2.t7 EF_AMUX21m_1.array_1ls_1tgm_0.array_1tgm_0.tg4dm_1.holdb.t7 EF_AMUX21m_1.array_1ls_1tgm_0.array_1tgm_0.tg4dm_1.out dvss.t19 sky130_fd_pr__nfet_g5v0d10v5 ad=0p pd=0u as=4.64e+12p ps=3.664e+07u w=2e+06u l=500000u
X136 dvss.t191 a_7096_n5816# a_7196_n5728.t4 dvss.t190 sky130_fd_pr__nfet_g5v0d10v5 ad=0p pd=0u as=0p ps=0u w=1.5e+06u l=500000u
X137 comparator_top_0.comparator_0.VBN.t7 a_2221_8623.t8 a_1821_8526.t4 vdd3p3.t97 sky130_fd_pr__pfet_g5v0d10v5 ad=0p pd=0u as=0p ps=0u w=5e+06u l=2e+06u
X138 vdd3p3.t3 EF_AMUX21m_1.array_1ls_1tgm_1.array_1lsm_0.invm_0.sky130_fd_sc_hvl__inv_2_0.Y EF_AMUX21m_1.array_1ls_1tgm_1.array_1tgm_0.tg4dm_1.holdb.t1 vdd3p3.t2 sky130_fd_pr__pfet_g5v0d10v5 ad=0p pd=0u as=0p ps=0u w=1e+06u l=500000u
X139 dvss.t78 a_838_n6794# a_1263_n6838# dvss.t77 sky130_fd_pr__nfet_g5v0d10v5 ad=0p pd=0u as=0p ps=0u w=1.5e+06u l=500000u
X140 a_1263_n6838# a_838_n6794# dvss.t76 dvss.t75 sky130_fd_pr__nfet_g5v0d10v5 ad=0p pd=0u as=0p ps=0u w=1.5e+06u l=500000u
X141 dvss.t86 a_470_n5812# a_570_n5724.t2 dvss.t85 sky130_fd_pr__nfet_g5v0d10v5 ad=0p pd=0u as=0p ps=0u w=1.5e+06u l=500000u
X142 EF_AMUX21m_2.array_1ls_1tgm_0.array_1lsm_0.invm_0.sky130_fd_sc_hvl__inv_2_0.Y EF_AMUX21m_2.array_1ls_1tgm_0.array_1lsm_0.invm_0.sky130_fd_sc_hvl__inv_2_0.A dvss.t118 dvss.t117 sky130_fd_pr__nfet_g5v0d10v5 ad=2.1e+11p pd=2.06e+06u as=0p ps=0u w=750000u l=500000u
X143 vss.t62 comparator_top_0.comparator_0.VBN.t11 a_2221_8623.t1 vss.t61 sky130_fd_pr__nfet_g5v0d10v5 ad=0p pd=0u as=0p ps=0u w=5e+06u l=2e+06u
X144 vdd3p3.t136 EF_AMUX21m_2.array_1ls_1tgm_0.array_1lsm_0.invm_0.sky130_fd_sc_hvl__inv_2_0.Y EF_AMUX21m_2.array_1ls_1tgm_0.array_1tgm_0.tg4dm_1.holdb.t1 vdd3p3.t135 sky130_fd_pr__pfet_g5v0d10v5 ad=0p pd=0u as=0p ps=0u w=1e+06u l=500000u
X145 dvss.t130 a_10810_n6777# a_11235_n6821# dvss.t129 sky130_fd_pr__nfet_g5v0d10v5 ad=0p pd=0u as=0p ps=0u w=1.5e+06u l=500000u
X146 a_2551_620.t3 a_2551_620.t2 vdd3p3.t10 vdd3p3.t9 sky130_fd_pr__pfet_g5v0d10v5 ad=0p pd=0u as=0p ps=0u w=5e+06u l=2e+06u
X147 a_2093_3714.t9 EF_AMUX21m_1.array_1ls_1tgm_0.array_1tgm_0.tg4dm_1.out a_5299_3714.t5 vdd3p3.t143 sky130_fd_pr__pfet_g5v0d10v5 ad=0p pd=0u as=0p ps=0u w=5e+06u l=2e+06u
X148 a_4609_n6817# a_4184_n6773# dvss.t48 dvss.t47 sky130_fd_pr__nfet_g5v0d10v5 ad=0p pd=0u as=0p ps=0u w=1.5e+06u l=500000u
X149 vdd1p8.t20 sela.t2 a_470_n5812# vdd1p8.t19 sky130_fd_pr__pfet_01v8_hvt ad=0p pd=0u as=2.478e+11p ps=2.27e+06u w=840000u l=150000u
X150 a_11235_n6821# a_10810_n6777# dvss.t128 dvss.t127 sky130_fd_pr__nfet_g5v0d10v5 ad=0p pd=0u as=0p ps=0u w=1.5e+06u l=500000u
X151 vss.t73 a_2551_4880.t6 a_5299_620.t1 vss.t72 sky130_fd_pr__nfet_g5v0d10v5 ad=0p pd=0u as=0p ps=0u w=5e+06u l=2e+06u
X152 a_5299_620.t3 a_5299_3714.t9 vss.t77 vss.t12 sky130_fd_pr__nfet_g5v0d10v5 ad=0p pd=0u as=0p ps=0u w=5e+06u l=2e+06u
X153 vdd3p3.t78 EF_AMUX21m_1.array_1ls_1tgm_0.array_1lsm_0.invm_0.sky130_fd_sc_hvl__inv_2_0.Y EF_AMUX21m_1.array_1ls_1tgm_0.array_1tgm_0.tg4dm_1.holdb.t1 vdd3p3.t77 sky130_fd_pr__pfet_g5v0d10v5 ad=0p pd=0u as=0p ps=0u w=1e+06u l=500000u
X154 a1.t5 EF_AMUX21m_1.array_1ls_1tgm_1.array_1tgm_0.tg4dm_1.holdp.t5 a1.t4 dvss.t171 sky130_fd_pr__nfet_g5v0d10v5 ad=0p pd=0u as=0p ps=0u w=2e+06u l=500000u
X155 dvss.t52 EF_AMUX21m_1.array_1ls_1tgm_0.array_1lsm_0.invm_0.sky130_fd_sc_hvl__inv_2_0.Y EF_AMUX21m_1.array_1ls_1tgm_0.array_1tgm_0.tg4dm_1.holdb.t2 dvss.t51 sky130_fd_pr__nfet_g5v0d10v5 ad=0p pd=0u as=0p ps=0u w=2e+06u l=500000u
X156 a1.t3 EF_AMUX21m_1.array_1ls_1tgm_1.array_1tgm_0.tg4dm_1.holdb.t6 EF_AMUX21m_1.array_1ls_1tgm_0.array_1tgm_0.tg4dm_1.out dvss.t135 sky130_fd_pr__nfet_g5v0d10v5 ad=0p pd=0u as=0p ps=0u w=2e+06u l=500000u
X157 EF_AMUX21m_2.array_1ls_1tgm_0.array_1tgm_0.tg4dm_1.holdb.t0 EF_AMUX21m_2.array_1ls_1tgm_0.array_1lsm_0.invm_0.sky130_fd_sc_hvl__inv_2_0.Y vdd3p3.t134 vdd3p3.t18 sky130_fd_pr__pfet_g5v0d10v5 ad=0p pd=0u as=0p ps=0u w=1e+06u l=500000u
X158 vdd3p3.t89 a_5299_1782.t8 a_5299_620.t2 vdd3p3.t51 sky130_fd_pr__pfet_g5v0d10v5 ad=0p pd=0u as=0p ps=0u w=5e+06u l=2e+06u
X159 b1.t4 EF_AMUX21m_2.array_1ls_1tgm_1.array_1tgm_0.tg4dm_1.holdp.t4 EF_AMUX21m_2.array_1ls_1tgm_0.array_1tgm_0.tg4dm_1.out vdd3p3.t118 sky130_fd_pr__pfet_g5v0d10v5 ad=0p pd=0u as=0p ps=0u w=1e+06u l=500000u
X160 EF_AMUX21m_2.array_1ls_1tgm_0.array_1tgm_0.tg4dm_1.out EF_AMUX21m_2.array_1ls_1tgm_0.array_1tgm_0.tg4dm_1.holdb.t7 EF_AMUX21m_2.array_1ls_1tgm_0.array_1tgm_0.tg4dm_1.out vdd3p3.t19 sky130_fd_pr__pfet_g5v0d10v5 ad=0p pd=0u as=0p ps=0u w=1e+06u l=500000u
X161 dvss.t82 EF_AMUX21m_1.array_1ls_1tgm_0.array_1lsm_0.lsm_0.sky130_fd_sc_hvl__lsbuflv2hv_1_0.A a_3816_n5791# dvss.t81 sky130_fd_pr__nfet_01v8 ad=0p pd=0u as=2.478e+11p ps=2.27e+06u w=840000u l=150000u
X162 dvss.t189 a_7096_n5816# a_7196_n5728.t3 dvss.t188 sky130_fd_pr__nfet_g5v0d10v5 ad=0p pd=0u as=0p ps=0u w=1.5e+06u l=500000u
X163 b1.t6 EF_AMUX21m_2.array_1ls_1tgm_1.array_1tgm_0.tg4dm_1.holdp.t5 b1.t5 dvss.t140 sky130_fd_pr__nfet_g5v0d10v5 ad=0p pd=0u as=0p ps=0u w=2e+06u l=500000u
X164 a_3916_n5703.t1 a_3816_n5791# dvss.t100 dvss.t99 sky130_fd_pr__nfet_g5v0d10v5 ad=0p pd=0u as=0p ps=0u w=1.5e+06u l=500000u
X165 a_2221_8623.t3 a_1821_8526.t8 vdd3p3.t103 vdd3p3.t102 sky130_fd_pr__pfet_g5v0d10v5 ad=0p pd=0u as=0p ps=0u w=5e+06u l=2e+06u
X166 vdd3p3.t49 vdd3p3.t47 a_2093_3714.t4 vdd3p3.t48 sky130_fd_pr__pfet_g5v0d10v5 ad=0p pd=0u as=0p ps=0u w=5e+06u l=2e+06u
X167 a_2151_4783.t2 EF_AMUX21m_2.array_1ls_1tgm_0.array_1tgm_0.tg4dm_1.out a_2093_1782.t1 vss.t3 sky130_fd_pr__nfet_g5v0d10v5 ad=0p pd=0u as=0p ps=0u w=5e+06u l=2e+06u
X168 a_7196_n5728.t2 a_7096_n5816# dvss.t187 dvss.t186 sky130_fd_pr__nfet_g5v0d10v5 ad=0p pd=0u as=0p ps=0u w=1.5e+06u l=500000u
X169 EF_AMUX21m_1.array_1ls_1tgm_0.array_1tgm_0.tg4dm_1.out EF_AMUX21m_1.array_1ls_1tgm_1.array_1tgm_0.tg4dm_1.holdb.t7 a1.t2 dvss.t136 sky130_fd_pr__nfet_g5v0d10v5 ad=0p pd=0u as=0p ps=0u w=2e+06u l=500000u
X170 dvss.t156 sela.t3 a_470_n5812# dvss.t155 sky130_fd_pr__nfet_01v8 ad=0p pd=0u as=2.478e+11p ps=2.27e+06u w=840000u l=150000u
X171 vdd3p3.t88 a_570_n5724.t8 a_1263_n6838# vdd3p3.t87 sky130_fd_pr__pfet_g5v0d10v5 ad=0p pd=0u as=1.365e+11p ps=1.49e+06u w=420000u l=1e+06u
X172 a_5299_620.t0 a_2551_4880.t7 vss.t75 vss.t74 sky130_fd_pr__nfet_g5v0d10v5 ad=0p pd=0u as=0p ps=0u w=5e+06u l=2e+06u
X173 EF_AMUX21m_1.array_1ls_1tgm_0.array_1tgm_0.tg4dm_1.out EF_AMUX21m_1.array_1ls_1tgm_1.array_1tgm_0.tg4dm_1.holdb.t8 EF_AMUX21m_1.array_1ls_1tgm_0.array_1tgm_0.tg4dm_1.out vdd3p3.t133 sky130_fd_pr__pfet_g5v0d10v5 ad=0p pd=0u as=0p ps=0u w=1e+06u l=500000u
X174 a1.t1 EF_AMUX21m_1.array_1ls_1tgm_1.array_1tgm_0.tg4dm_1.holdb.t9 a1.t0 vdd3p3.t0 sky130_fd_pr__pfet_g5v0d10v5 ad=0p pd=0u as=0p ps=0u w=1e+06u l=500000u
X175 a_1263_n6838# a_838_n6794# dvss.t74 dvss.t73 sky130_fd_pr__nfet_g5v0d10v5 ad=0p pd=0u as=0p ps=0u w=1.5e+06u l=500000u
X176 dvss.t84 a_470_n5812# a_570_n5724.t1 dvss.t83 sky130_fd_pr__nfet_g5v0d10v5 ad=0p pd=0u as=0p ps=0u w=1.5e+06u l=500000u
X177 a_2093_3714.t1 EF_AMUX21m_2.array_1ls_1tgm_0.array_1tgm_0.tg4dm_1.out a_2151_594.t0 vdd3p3.t25 sky130_fd_pr__pfet_g5v0d10v5 ad=0p pd=0u as=0p ps=0u w=5e+06u l=2e+06u
X178 vdd3p3.t121 EF_AMUX21m_2.array_1ls_1tgm_0.array_1lsm_0.invm_0.sky130_fd_sc_hvl__inv_2_0.A EF_AMUX21m_2.array_1ls_1tgm_0.array_1lsm_0.invm_0.sky130_fd_sc_hvl__inv_2_0.Y vdd3p3.t120 sky130_fd_pr__pfet_g5v0d10v5 ad=0p pd=0u as=0p ps=0u w=1.5e+06u l=500000u
X179 vdd3p3.t141 a_10542_n5707.t7 a_11235_n6821# vdd3p3.t140 sky130_fd_pr__pfet_g5v0d10v5 ad=0p pd=0u as=1.365e+11p ps=1.49e+06u w=420000u l=1e+06u